  36
  g98_logfile    structure: 2
  C       1.240347   -3.512030    0.000000
  C       0.000000   -2.829359   -0.000000
  C       0.000000   -1.418445   -0.000000
  C       1.228410   -0.709223   -0.000000
  C       2.450297   -1.414680   -0.000000
  C       2.421334   -2.830188    0.000000
  C      -1.228410   -0.709223   -0.000000
  C       1.228410    0.709223   -0.000000
  C      -0.000000    1.418445   -0.000000
  C      -1.228410    0.709223   -0.000000
  C      -0.000000    2.829359   -0.000000
  C       1.240347    3.512030    0.000000
  C       2.421334    2.830188    0.000000
  C       2.450297    1.414680   -0.000000
  C       3.661681    0.681843    0.000000
  C       3.661681   -0.681843    0.000000
  H       4.598945   -1.227040    0.000000
  H       4.598945    1.227040    0.000000
  H       1.236825   -4.596324    0.000000
  H       3.362121   -3.369283   -0.000000
  H       1.236825    4.596324    0.000000
  H       3.362121    3.369283    0.000000
  C      -1.240347   -3.512030    0.000000
  C      -2.421334   -2.830188    0.000000
  C      -2.450297   -1.414680   -0.000000
  H      -1.236825   -4.596324   -0.000000
  H      -3.362121   -3.369283    0.000000
  C      -3.661681   -0.681843    0.000000
  C      -3.661681    0.681843    0.000000
  C      -2.450297    1.414680   -0.000000
  H      -4.598945   -1.227040    0.000000
  H      -4.598945    1.227040    0.000000
  C      -1.240347    3.512030    0.000000
  H      -1.236825    4.596324    0.000000
  C      -2.421334    2.830188    0.000000
  H      -3.362121    3.369283    0.000000
