12

C       0.000000000000000     -0.471925000000000      0.471925000000000
C       0.000000000000000      0.471925000000000     -0.471925000000000
H       0.922986000000000     -0.872422000000000      0.872422000000000
H       0.922986000000000      0.872422000000000     -0.872422000000000
H      -0.924197000000000     -0.870464000000000      0.870464000000000
H      -0.924197000000000      0.870464000000000     -0.870464000000000
C       4.461866400000000      0.471925000000000      0.471925000000000
C       4.461866400000000     -0.471925000000000     -0.471925000000000
H       3.538880400000000      0.872422000000000      0.872422000000000
H       3.538880400000000     -0.872422000000000     -0.872422000000000
H       5.386063400000000      0.870464000000000      0.870464000000000
H       5.386063400000000     -0.870464000000000     -0.870464000000000
