24

C       0.773662004828180     -1.580482855878565      0.000060615709046
C       0.608954095817494     -0.904803277135478      1.205376847668256
C       0.608638282661721     -0.904984069405587     -1.205312140878354
C       0.278345284134771      0.447268823191751      1.205220475105272
C       0.112267506376092      1.122628821295624     -0.000024854125735
C       0.278035002794660      0.447091750110125     -1.205217759212612
H       0.739708231110852     -1.433431456021644     -2.147892686551225
H       0.152291112911508      0.976109225293062     -2.148164140268677
H      -0.143869881741881      2.180641020265244     -0.000056827192042
H       0.152629424614382      0.976367104872990      2.148134252422618
H       0.740033071997753     -1.433169168378424      2.147995764602634
H       1.031360185974778     -2.637968456752326      0.000101238253770
C       3.744307495485022      1.580421653796804      0.000025849934456
C       3.909517252207560      0.904954333431903     -1.205341987924273
C       3.909135298084610      0.904767878425599      1.205343024607883
C       4.240301355443392     -0.447077214283667     -1.205250453646755
C       4.406053183526317     -1.122615097944414     -0.000059787741129
C       4.239944610751782     -0.447257184777100      1.205180534219360
H       3.486573589063540      2.637898884668070      0.000062865412867
H       3.778041138284918      1.433128901971173      2.147960139220774
H       4.365801404693809     -0.976319940872792      2.148093063980781
H       4.662469156363259     -2.180562974310543     -0.000092542152489
H       4.366409895833620     -0.976012710628900     -2.148195990918845
H       3.778632849975049      1.433438844403607     -2.147923400205561
