26

C      -1.823010517339704     -1.142746305743601      0.357418140710453
O      -1.263071496875154      0.006708795862731     -0.082139046366498
H      -0.305444621434825     -0.026180794167852      0.093496926450158
C      -1.087430439316637     -2.116744743858070      1.036247703603570
C      -1.724919995578178     -3.280805659385190      1.465197221022700
C      -3.078670932277406     -3.477156421808274      1.223399400079426
C      -3.803375723519171     -2.496966038112014      0.548554189849565
C      -3.185732266911045     -1.332229502925982      0.116758776252852
H      -0.029321432756451     -1.953715924441766      1.222095027060615
H      -1.157457687181805     -4.041602896474762      1.995742799480432
H      -3.568918726928552     -4.386299483790423      1.559436272144321
H      -4.863862161853122     -2.641889161462632      0.356917083775241
H      -3.733538783849635     -0.556670060198765     -0.411108421585429
O       1.512169519194218     -0.400689298658264      0.195687896911295
C       2.252786277681722     -1.382906739756258     -0.430831744313872
H       2.103186087186043      0.180777128938041      0.693931983640646
C       1.565738127235608     -2.304569917548096     -1.215705379280105
C       2.275667115018083     -3.309416941914646     -1.864172074778821
C       3.658948964997614     -3.396103203533822     -1.733875065713873
C       4.331040992274557     -2.466380089548422     -0.948247466309734
C       3.633639015291457     -1.455521454201897     -0.293581533002789
H       0.485224721170056     -2.224422101483478     -1.311303431187683
H       1.741878977132822     -4.032544520275610     -2.476072560239960
H       4.208498844634214     -4.183452692186267     -2.242475559423961
H       5.411219957810061     -2.524595820411059     -0.840523985685738
H       4.163063637978895     -0.729322187345581      0.320906018693753
