12

C      -0.374254713279496     -0.469515045545666      0.469515026722437
C      -0.374254773734517      0.469515062698923     -0.469515059761092
H       0.550384243363182     -0.879058964283977      0.879058895600084
H       0.550384238054964      0.879058884120695     -0.879058870942027
H      -1.303985970051688     -0.868803720237306      0.868803688674487
H      -1.303985989657873      0.868803735202299     -0.868803704542089
C       2.977008708358969      0.469516060473292      0.469516049169776
C       2.977008699247608     -0.469516061957386     -0.469516045543911
H       2.052371866874234      0.879058163418368      0.879058127605639
H       2.052371866670981     -0.879058179917670     -0.879058147181531
H       3.906742054006897      0.868804692498240      0.868804682191345
H       3.906742090028109     -0.868804687081499     -0.868804612395683
