10

C      -1.434944260000000     -1.236643950000000      0.000000000000000
O      -0.995009530000000      0.001876690000000      0.000000000000000
O      -0.752030700000000     -2.248465540000000      0.000000000000000
H      -2.527660580000000     -1.276950580000000      0.000000000000000
H       0.000000000000000      0.000000000000000      0.000000000000000
C       2.186205470000000     -1.011821590000000      0.000000000000000
O       1.746270740000000     -2.250342240000000      0.000000000000000
O       1.503291910000000      0.000000000000000      0.000000000000000
H       3.278921790000000     -0.971514960000000      0.000000000000000
H       0.751261210000000     -2.248465540000000      0.000000000000000
