10
formic acid dimer Dimer
C   -1.43494426   -1.23664395    0.00000000
O   -0.99500953    0.00187669    0.00000000
O   -0.75203070   -2.24846554    0.00000000
H   -2.52766058   -1.27695058    0.00000000
H    0.00000000    0.00000000    0.00000000
C    2.01917304   -1.01182159    0.00000000
O    1.57923831   -2.25034224    0.00000000
O    1.33625948    0.00000000    0.00000000
H    3.11188936   -0.97151496    0.00000000
H    0.58422878   -2.24846554    0.00000000
