17

C       0.077950100151645      0.036327023641058     -1.391923740183673
C       0.077942581957710     -1.187368248897450     -0.727476167755538
C       0.077951177452444     -1.223613098648919      0.664502309885564
C       0.077941944796749     -0.036322760822701      1.392035805847600
C       0.077950854620262      1.187281281372319      0.727421265189102
C       0.077943214041075      1.223695155144770     -0.664555720378589
H       0.079566473047264      0.064685039587397     -2.479186296150951
H       0.079502531036028     -2.114770685482604     -1.295695906121226
H       0.079567553046775     -2.179377402183889      1.183572724429669
H       0.079501834656465     -0.064720286286370      2.479290639455238
H       0.079567396740768      2.114693901878979      1.295612465877424
H       0.079503387698375      2.179491894950626     -1.183598126591487
C       4.053754142908837     -0.000000024670015     -0.000000011958887
H       4.421094513758888      0.842676559334560     -0.590925145656125
H       4.421094270253833      0.090417718736254      1.025241915653549
H       2.962263755857539      0.000000227712613     -0.000000138705791
H       4.421094285828495     -0.933094695604489     -0.434316813890244
