13

N       1.433117416210678      0.348298994652834     -0.015794551266676
C       2.132272528917174     -0.772429515477600      0.177457617642448
C       3.538945884656949     -0.806996541894388      0.168961416843085
C       4.220107458341481      0.375266953240801     -0.045826924163214
C       3.502441228430121      1.553843494354944     -0.250780612898981
C       2.119495417286641      1.477216173892273     -0.226366761193822
H       4.064210612384600     -1.743683841785902      0.339419137665026
H       5.307509685782412      0.382419032093978     -0.055815347684020
H       4.003512573566774      2.500692033155291     -0.424348270839806
H       1.515009344222041      2.370694818151859     -0.382277580084453
N       1.400739641951078     -1.916815267919964      0.442585104496128
H       1.823456324923048     -2.793616085514078      0.176846573028433
H       0.425331685094589     -1.837759316790170      0.192726239780910
