17

C       0.143892201260789      0.036272742032786     -1.392439269315272
C       0.143939381628595     -1.187733659639547     -0.727623979263093
C       0.143892307191704     -1.224024883714382      0.664806113960187
C       0.143939651787975     -0.036276613025784      1.392419144719347
C       0.143892572985789      1.187756038478245      0.727629505090133
C       0.143939526686187      1.224011444684207     -0.664793309750721
H       0.141848987926122      0.064492417042136     -2.479656034863258
H       0.142292855163899     -2.115081156884254     -1.295850049460379
H       0.141849368965909     -2.179693900105695      1.183979030964579
H       0.142293399636661     -0.064702010517575      2.479634553994560
H       0.141849500216454      2.115199109052612      1.295687754871503
H       0.142293340025871      2.179780712425567     -1.183795202394263
C       4.689202079021760      0.000000763573830      0.000000526098059
H       5.055250438652132      0.842862613704096     -0.590160026219197
H       5.055251337380309      0.089662119686922      1.025020179745922
H       3.598254348026406     -0.000001597254354      0.000000072790023
H       5.055249920147809     -0.932523682889020     -0.434859590537630
