24
uracil dimer (stack) Dimer
N   -0.27790501    1.29367954    0.17614197
C   -0.31314340    0.77865720   -1.09019403
H   -0.55662845    1.48297630   -1.87143703
C   -0.05442933   -0.52203414   -1.33828003
H   -0.08333918   -0.92007182   -2.33779603
C    0.31574183   -1.40331977   -0.24638003
O    0.65706663   -2.57165556   -0.35183703
N    0.27289252   -0.78328638    1.00884497
H    0.57557519   -1.34248314    1.79757997
C    0.05767640    0.55148208    1.29293597
O    0.16219780    1.03423971    2.40401497
H   -0.35588204    2.28595021    0.33102197
N    2.63363413   -1.29367954    0.17614197
C    2.66887252   -0.77865720   -1.09019403
H    2.91235758   -1.48297630   -1.87143703
C    2.41015845    0.52203414   -1.33828003
H    2.43906830    0.92007182   -2.33779603
C    2.03998729    1.40331977   -0.24638003
O    1.69866249    2.57165556   -0.35183703
N    2.08283661    0.78328638    1.00884497
H    1.78015393    1.34248314    1.79757997
C    2.29805272   -0.55148208    1.29293597
O    2.19353133   -1.03423971    2.40401497
H    2.71161116   -2.28595021    0.33102197
