10
ethene ... ethyne Dimer
C    0.00000000   -0.66757800    0.00000000
C    0.00000000    0.66757800    0.00000000
H   -0.00152600   -1.23225300   -0.92362100
H   -0.00152600   -1.23225300    0.92362100
H   -0.00152600    1.23225300    0.92362100
H   -0.00152600    1.23225300   -0.92362100
C    5.57556420    0.00000000    0.00000000
C    4.36830120    0.00000000    0.00000000
H    3.30241320    0.00000000    0.00000000
H    6.63899020    0.00000000    0.00000000
