28

C      -0.082412329790481     -1.387820941201029      0.000000971901010
C      -0.061835352217831     -0.691870928394905     -1.205872325967193
C      -0.020635742436218      0.699959129722964     -1.205859651236529
C       0.000011976832414      1.395889359644539      0.000000617756518
C      -0.020635735690500      0.699958489682627      1.205861551523569
C      -0.061835351043692     -0.691871556760905      1.205874008045726
H      -0.114842777126855     -2.474942721362684      0.000000694831563
H      -0.078027332366471     -1.235429212108521     -2.147752696876084
H      -0.004490431806139      1.243518325665954     -2.147738256895913
H       0.032248021775352      2.483016169808314      0.000001109182340
H      -0.004490426064078      1.243517181920057      2.147739930984917
H      -0.078027342039477     -1.235430271746071      2.147754463329998
H       4.498941379164853      0.003540222811689      0.000000014319473
N       5.505323080525260      0.011324043266156      0.000000001418030
C       6.297778147936425      1.139410449760257      0.000000001236932
C       7.611206127392465      0.775555848857557     -0.000000000430747
C       7.649474635929100     -0.665118766163220     -0.000000000196110
C       6.308413107137232     -1.107213920134234      0.000000001001552
C       5.962955519734880     -2.462720475816523      0.000000000487255
C       7.000575533539970     -3.378205076873473      0.000000000026854
C       8.346612248958797     -2.962576577023938      0.000000000011288
C       8.680606600813100     -1.619527975545858     -0.000000000175165
H       5.846511770977651      2.123111151266854      0.000000001097256
H       8.462229453111613      1.443444998207954     -0.000000001164139
H       4.923466865585808     -2.782103193677808      0.000000000180193
H       6.774030707723896     -4.441660969701172     -0.000000000237356
H       9.134204998921660     -3.711678505090067      0.000000000151567
H       9.722808914002680     -1.308330275169741     -0.000000000123769
