24
benzene dimer (T-shape) Dimer
C    0.00000000    0.00000000    1.05903500
C    0.00000000   -1.20600800    1.75767400
C    0.00000000   -1.20717700    3.15159100
C    0.00000000    0.00000000    3.84857500
C    0.00000000    1.20717700    3.15159100
C    0.00000000    1.20600800    1.75767400
H    0.00000000    0.00000000   -0.02158000
H    0.00000000   -2.14163900    1.21442200
H    0.00000000   -2.14356600    3.69299500
H    0.00000000    0.00000000    4.93015000
H    0.00000000    2.14356600    3.69299500
H    0.00000000    2.14163900    1.21442200
C   -1.39406300    0.00000000   -2.45415200
C   -0.69704700    1.20723800   -2.45462800
C    0.69704700    1.20723800   -2.45462800
C    1.39406300    0.00000000   -2.45415200
C    0.69704700   -1.20723800   -2.45462800
C   -0.69704700   -1.20723800   -2.45462800
H   -2.47539900    0.00000000   -2.45032200
H   -1.23823200    2.14356500   -2.45367600
H    1.23823200    2.14356500   -2.45367600
H    2.47539900    0.00000000   -2.45032200
H    1.23823200   -2.14356500   -2.45367600
H   -1.23823200   -2.14356500   -2.45367600
