24
uracil dimer (HB) Dimer
O    0.00000000    0.00000000    0.00000000
C   -0.66424394    1.03687915    0.00000000
N   -0.10866344    2.28638952    0.00000000
C   -0.86469194    3.42752195    0.00000000
C   -2.21423160    3.40390953    0.00000000
C   -2.90986986    2.13180389    0.00000000
N   -2.03492462    1.02930119    0.00000000
O   -4.11552152    1.95873396    0.00000000
H   -2.79384033    4.31079935    0.00000000
H    0.91790819    2.33432991    0.00000000
H   -2.46932580    0.11655133    0.00000000
H   -0.30003763    4.34802404    0.00000000
O    4.46702128    2.33432991    0.00000000
C    5.13126522    1.29745076    0.00000000
N    4.57568472    0.04794039    0.00000000
C    5.33171322   -1.09319205    0.00000000
C    6.68125288   -1.06957963    0.00000000
C    7.37689114    0.20252601    0.00000000
N    6.50194591    1.30502871    0.00000000
O    8.58254281    0.37559595    0.00000000
H    7.26086162   -1.97646944    0.00000000
H    3.54911309    0.00000000    0.00000000
H    6.93634709    2.21777858    0.00000000
H    4.76705891   -2.01369414    0.00000000
