30

N      -0.474489750567658      1.356925069744350     -1.304970734101954
C      -0.534568848265687      0.349650469882110     -2.239501510753013
H      -0.558295130050933      0.568472264229326     -3.300110391499103
N      -0.536086616138819     -0.847144437828363     -1.720224338416533
C      -0.467359170384910     -0.605822500996588     -0.351758096876278
C      -0.365353186157071     -1.469067858423473      0.755809255865427
N      -0.412503915158659     -2.813998105668419      0.586218309855473
H      -0.050500524549155     -3.376117927509050      1.344133295620241
H      -0.223666662290014     -3.146465680587126     -0.350227217843964
N      -0.258137502929631     -0.939675330428454      1.983769801607833
C      -0.268934528932793      0.398412296674495      2.100573138444583
H      -0.210078228147712      0.775991285254405      3.121403544934648
N      -0.348465080685773      1.321002482294166      1.142486382950237
C      -0.425963239582124      0.745083660928087     -0.070288065908436
H      -0.281391771492157      2.330821429234962     -1.489286643484293
N       3.456786011549645      1.205701468564399      0.189389183836693
C       3.690520221408228      0.510132489728536      1.353913422971336
H       4.101240144599673      1.097753655662660      2.171937120094013
C       3.431167554834855     -0.801801922058455      1.476842332310166
C       3.574068587536292     -1.587624368974742      2.738898841134107
H       2.597820214887219     -1.977527846557938      3.053241830532920
H       4.221178696946953     -2.455917176077769      2.583758963120962
H       3.984689873847369     -0.979057481332619      3.551494279497658
C       2.923930171664015     -1.520185624125869      0.304309946780831
O       2.686685963430559     -2.716402439862087      0.275166724948249
N       2.688067111451677     -0.720710558773563     -0.814005049674198
H       2.287775417899898     -1.181145452418797     -1.623044538617751
C       2.902585654095187      0.636906985265599     -0.944796274598819
O       2.656902731368872      1.276903407317461     -1.947333611777050
H       3.649356537458454      2.194931304799582      0.127639890675043
