20

C       0.395653040000000      1.059432140000000     -0.696139000000000
C       0.395653040000000      1.059432140000000      0.696139000000000
N      -0.003263360000000      0.000227380000000      1.414480000000000
C      -0.391847360000000     -1.059697310000000      0.696729000000000
C      -0.391847360000000     -1.059697310000000     -0.696729000000000
N      -0.003263360000000      0.000227380000000     -1.414480000000000
H       0.718983380000000      1.933370250000000     -1.247280000000000
H       0.718983380000000      1.933370250000000      1.247280000000000
H      -0.713152250000000     -1.934362750000000      1.247560000000000
H      -0.713152250000000     -1.934362750000000     -1.247560000000000
C       4.442367470000000      0.643132000000000      1.130045000000000
C       3.906622500000000     -0.642689430000000      1.130631000000000
N       3.633601430000000     -1.306738850000000      0.000000000000000
C       3.906622500000000     -0.642689430000000     -1.130631000000000
C       4.442367470000000      0.643132000000000     -1.130045000000000
N       4.719852400000000      1.305979850000000      0.000000000000000
H       4.653325610000000      1.152471210000000      2.061864000000000
H       3.686886980000000     -1.147744340000000      2.062399000000000
H       3.686886980000000     -1.147744340000000     -2.062399000000000
H       4.653325610000000      1.152471210000000     -2.061864000000000
