15
benzene ... water Dimer
C    0.78061200   -0.60988800   -1.20754300
C    0.47840400    0.75104100   -1.20790400
C    0.32765900    1.43185700    0.00000000
C    0.47840400    0.75104100    1.20790400
C    0.78061200   -0.60988800    1.20754300
C    0.93215100   -1.28996100    0.00000000
H    0.89666900   -1.13760500   -2.14414800
H    0.35739000    1.27820900   -2.14405500
H    0.09185900    2.48714100    0.00000000
H    0.35739000    1.27820900    2.14405500
H    0.89666900   -1.13760500    2.14414800
H    1.16900600   -2.34516700    0.00000000
O   -2.78852700   -0.27448500    0.00000000
H   -2.62291100   -1.21908300    0.00000000
H   -1.90151000    0.09791100    0.00000000
