30

N      -0.780286001563837      1.361897834913567     -1.314010834462653
C      -0.837590036779276      0.355303363514733     -2.249442593000427
H      -0.855370105395589      0.574837997543186     -3.310003927642419
N      -0.844397431819898     -0.841796792699573     -1.730913630184434
C      -0.782365576438227     -0.601402171314182     -0.361971939711131
C      -0.687928180055852     -1.465521191064976      0.745558715794208
N      -0.736969641065828     -2.810250903156196      0.574900198381936
H      -0.380034264211856     -3.373515692607605      1.334371538623103
H      -0.543782935612014     -3.142589628059672     -0.360722596524272
N      -0.586088414078309     -0.937127241768576      1.974403510827630
C      -0.594681701957471      0.400896262976524      2.091989076829754
H      -0.540288315655191      0.777741497869385      3.113328129179315
N      -0.667259071981066      1.324239558682704      1.134077661034623
C      -0.739547098925350      0.749239781475508     -0.079453151359433
H      -0.584253557147066      2.335501957390661     -1.496757654884144
N       3.142787601311096      1.201704115067463      0.201016899461981
C       3.369023753891005      0.504936416540863      1.366294425865569
H       3.776782079691348      1.091127892845273      2.186819329767348
C       3.106223012776356     -0.806510986772629      1.487035769968541
C       3.240867927504211     -1.593382460604551      2.749331279796874
H       2.262174226169999     -1.981415131873179      3.058351474225515
H       3.886911513294575     -2.462969541446375      2.597025745894087
H       3.648555138252111     -0.986181226376179      3.564430919530852
C       2.603636029242512     -1.523115368860511      0.311433756872531
O       2.363967294500862     -2.718796960738135      0.280348313636256
N       2.375337009960810     -0.722466216471473     -0.807598857208031
H       1.978203095392114     -1.181556021927945     -1.618943777222204
C       2.593334269196741      0.634783213318695     -0.936410820215919
O       2.354265431274666      1.275912393656279     -1.939828756686573
H       3.337940998706218      2.190503246803127      0.140776937945582
