10

C       0.000000000000000     -0.667578000000000      0.000000000000000
C       0.000000000000000      0.667578000000000      0.000000000000000
H      -0.001526000000000     -1.232253000000000     -0.923621000000000
H      -0.001526000000000     -1.232253000000000      0.923621000000000
H      -0.001526000000000      1.232253000000000      0.923621000000000
H      -0.001526000000000      1.232253000000000     -0.923621000000000
C       5.575564200000000      0.000000000000000      0.000000000000000
C       4.368301200000000      0.000000000000000      0.000000000000000
H       3.302413200000000      0.000000000000000      0.000000000000000
H       6.638990200000000      0.000000000000000      0.000000000000000
