10

C      -0.338351206267137      2.079573110807847      1.128412384150520
C       0.852534245951601      1.357453586434145      1.128407684564747
N       1.458937699288606      0.989740925019665      0.000002077146224
C       0.852533516628625      1.357454017882217     -1.128410740574240
C      -0.338351912024093      2.079573507892929     -1.128409452885085
N      -0.944748647848827      2.447283173550181     -0.000002036189471
H      -0.815191501951128      2.368703576091360      2.063626554377175
H       1.329355389557784      1.068351105638722      2.063642043026703
H       1.329354968137192      1.068351371680886     -2.063641369756392
H      -0.815191593505943      2.368703644209955     -2.063627180250714
