24

C      -1.434003900556540     -0.000000417467023     -0.000000017373002
C      -2.132108229867801     -1.204962407328185     -0.000000009556891
C      -3.522344519009187     -1.205197953684761      0.000000003119810
C      -4.219554169229253     -0.000000406049556      0.000000007265915
C      -3.522345422976588      1.205198665899386     -0.000000000467506
C      -2.132107356220464      1.204963159136635     -0.000000013062547
H      -0.348881663493492      0.000000080395153     -0.000000036428951
H      -1.586435112719879     -2.146259979784904     -0.000000010421104
H      -4.064937626118673     -2.147750400016968      0.000000008431762
H      -5.306684722908448      0.000000107459719      0.000000013663050
H      -4.064937238717408      2.147749995621588      0.000000001888051
H      -1.586435413983169      2.146259619361289     -0.000000016793686
C       2.058666946768315      0.000000533402393     -1.393444147734080
C       2.056946639916281      1.206876782991140     -0.696814345577528
C       2.056946597616011      1.206876425723104      0.696814439480205
C       2.058666992314626      0.000000154136428      1.393443641846358
C       2.056946577864733     -1.206876668877460      0.696814998116451
C       2.056946589231829     -1.206877553681662     -0.696814786201148
H       2.050373354588812      0.000000008964072     -2.480039000194749
H       2.047801572552206      2.148599142784310     -1.239640297234223
H       2.047801590223181      2.148599240416813      1.239640441085601
H       2.050373368112541      0.000000012175852      2.480039302688729
H       2.047801482662203     -2.148598956966617      1.239640290925371
H       2.047801495237933     -2.148598805123216     -1.239640166699882
