17

C       1.391922887091966      0.036345587090070     -0.710079841791349
C       0.727495163799163     -1.187357319287651     -0.710001073185691
C      -0.664488195808702     -1.223618462324856     -0.710079839400077
C      -1.392025025148469     -0.036342260387723     -0.710000693068291
C      -0.727443646002554      1.187264146261588     -0.710080256142794
C       0.664539675552707      1.223706326101770     -0.710000674247991
H       2.479182791568113      0.064722735404918     -0.708690823343925
H       1.295722800817920     -2.114749590109336     -0.708237636182748
H      -1.183539145725564     -2.179394722264298     -0.708690750580402
H      -2.479289574075630     -0.064754593942296     -0.708237660188071
H      -1.295641887389996      2.114674314620048     -0.708690525433251
H       1.183565061124388      2.179502932365609     -0.708237674555992
C      -0.000000116554650      0.000000065965385      3.265756696519585
H       0.591111729457332      0.842541780735955      3.633093604862315
H      -1.025218330847588      0.090646957339496      3.633093661244889
H      -0.000000164916051      0.000000033228945      2.174272078050306
H       0.434106685444496     -0.933188678731254      3.633093380007457
