5

C       1.888896000000000      0.179692000000000      0.000000000000000
O       1.493280000000000     -1.073689000000000      0.000000000000000
O       1.170435000000000      1.166590000000000      0.000000000000000
H       2.979488000000000      0.258829000000000      0.000000000000000
H       0.498833000000000     -1.107195000000000      0.000000000000000
