15
benzene ... water Dimer
C    0.06873616    1.39238384   -1.20754300
C    0.00000000    0.00000000   -1.20790400
C   -0.03480730   -0.69643588    0.00000000
C    0.00000000    0.00000000    1.20790400
C    0.06873616    1.39238384    1.20754300
C    0.10258114    2.08831334    0.00000000
H    0.09647711    1.93199935   -2.14414800
H   -0.02281541   -0.54039795   -2.14405500
H   -0.08669494   -1.77649774    0.00000000
H   -0.02281541   -0.54039795    2.14405500
H    0.09647711    1.93199935    2.14414800
H    0.15343075    3.16857919    0.00000000
O    3.91543399    0.12436973    0.00000000
H    4.00571023    1.07911799    0.00000000
H    2.96148949    0.00000000    0.00000000
