12

C       0.000000000000000     -0.471925000000000      0.471925000000000
C       0.000000000000000      0.471925000000000     -0.471925000000000
H       0.922986000000000     -0.872422000000000      0.872422000000000
H       0.922986000000000      0.872422000000000     -0.872422000000000
H      -0.924197000000000     -0.870464000000000      0.870464000000000
H      -0.924197000000000      0.870464000000000     -0.870464000000000
C       3.346399800000000      0.471925000000000      0.471925000000000
C       3.346399800000000     -0.471925000000000     -0.471925000000000
H       2.423413800000000      0.872422000000000      0.872422000000000
H       2.423413800000000     -0.872422000000000     -0.872422000000000
H       4.270596800000000      0.870464000000000      0.870464000000000
H       4.270596800000000     -0.870464000000000     -0.870464000000000
