15

N       0.921193322913876     -0.039960135321339     -0.377605110016578
C       1.677983511847228     -0.055693378830222      0.725765810800596
C       3.076446058233127     -0.022619658909101      0.596376864103707
C       3.564081567306320      0.018838828434643     -0.703317648396788
N       2.843973565609640      0.032231365189547     -1.830989142351601
C       1.543081814662216      0.001863920373400     -1.565898038544658
N       4.100080026879070     -0.017357834602496      1.529310461080013
C       5.176293173693097      0.022850198244693      0.795814681704531
N       4.927431727364938      0.046001603638024     -0.557024412693434
N       1.078616849435864     -0.125589878142730      1.936847172536032
H       0.881712056761500      0.011619507324234     -2.430790575472757
H       6.190223021011868      0.038207007202487      1.177309441474673
H       5.601212426927123      0.078950412273731     -1.306315339338840
H       0.079584644608633     -0.007225234329639      1.982119890255681
H       1.635689594895343      0.006281301240770      2.766716270087558
