20

C      -0.351701951553597      1.258596554334876     -0.694248503674231
C      -0.351701868551477      1.258596879579720      0.694248610110563
N      -0.632952825977419      0.163393007381119      1.399565959761930
C      -0.910194012094857     -0.929115144858091      0.695091045214357
C      -0.910194478255319     -0.929116526979075     -0.695090958705370
N      -0.632952300052490      0.163394693890028     -1.399566227223526
H      -0.107133494167151      2.163094605548046     -1.254210886162711
H      -0.107133476648275      2.163094366964482      1.254211224233534
H      -1.139165208814880     -1.837459327959534      1.254487789004861
H      -1.139164858791072     -1.837458685083547     -1.254487703731032
C       3.228522712271201      0.511532387445051      1.129607097379133
C       2.906233478830016     -0.839972217190007      1.129016561341004
N       2.739591966403776     -1.523790345238464     -0.000001501629282
C       2.906234545637455     -0.839969066405764     -1.129013117429374
C       3.228521736644197      0.511528676367689     -1.129603891082006
N       3.390501218137560      1.195047235109671     -0.000001742863595
H       3.350815982446433      1.059996963568960      2.064811362475065
H       2.764254052260921     -1.381935697290671      2.065665766467330
H       2.764254016020466     -1.381937534135959     -2.065666734593260
H       3.350816244584844      1.059997821247239     -2.064813106435231
