28

C      -0.380264577451211     -0.110756921424698     -0.019391891669299
C      -0.559928438087570     -1.213034885622735      0.811300376937231
C      -0.525084409171788     -2.499049168970875      0.276961506665069
C      -0.304547421809510     -2.681514211911057     -1.084402276002463
C      -0.125921741540243     -1.579279427740359     -1.914338248756215
C      -0.174291631988104     -0.293575858017587     -1.382330689224363
H      -0.397359529522169      0.895316520320911      0.399165485890450
H      -0.721997905111218     -1.075969892510196      1.879223146985899
H      -0.666681904985980     -3.362727439013208      0.924603418132198
H      -0.272806294962365     -3.686761001057767     -1.499912730881730
H       0.046635505620761     -1.723040662812435     -2.980036874298608
H      -0.038713666445601      0.565276412952419     -2.036327217161605
H       2.334957069310658     -0.730716332191046      3.350373021696273
C       2.532899022275352     -0.635285153212788      2.284695251122201
C       2.534442317336340      0.619409350479924      1.700940912805896
H       2.334996365335174      1.507895838027957      2.295853706743539
C       2.786287260075089      0.729985559608614      0.321467228957702
C       2.853873401775143      1.830399597653201     -0.611060899483666
H       2.700539315970117      2.878866020412006     -0.388677791061233
C       3.136888378598687      1.298362299427524     -1.837796645391373
N       3.251334089622064     -0.069520262742279     -1.730214497543636
C       3.031952235057433     -0.441152003200444     -0.421406135717191
C       3.029029242400148     -1.712542388759777      0.163148552574653
H       3.220682377343290     -2.600450411531099     -0.434735483849578
C       2.779834582686723     -1.791794612008816      1.522024527940430
H       2.769120620787795     -2.765153129170869      2.009681165072719
H       3.385550081512196     -0.710126368938849     -2.496196042476728
H       3.260352025497522      1.786177036441940     -2.795763357782925
