10

C       0.117212475258064     -0.664161920630070      0.000000229346930
C       0.117212496433260      0.664162045530945     -0.000000053479184
H       0.108309507946215     -1.234321308284928     -0.927827841120184
H       0.108309641444926     -1.234321293351893      0.927828025289913
H       0.108309577622625      1.234321536583218      0.927827991733671
H       0.108309574010304      1.234321276356582     -0.927827956601774
C       5.403912021436663     -0.000000000565711      0.000000002212184
C       4.202136147390068      0.000000002841901      0.000000011973875
H       3.133680579931798      0.000000004477446      0.000000026138003
H       6.471772850812091     -0.000000003663004     -0.000000003194765
