13

N       1.432762000000000      0.363970000000000     -0.015951000000000
C       2.115420000000000     -0.780345000000000      0.168110000000000
C       3.523759000000000     -0.801610000000000      0.154503000000000
C       4.218590000000000      0.373578000000000     -0.052593000000000
C       3.509971000000000      1.561501000000000     -0.244976000000000
C       2.128014000000000      1.495332000000000     -0.217537000000000
H       4.045921000000000     -1.736136000000000      0.307688000000000
H       5.299943000000000      0.366601000000000     -0.066335000000000
H       4.011092000000000      2.502431000000000     -0.413005000000000
H       1.533988000000000      2.389384000000000     -0.367057000000000
N       1.388312000000000     -1.908304000000000      0.419815000000000
H       1.869471000000000     -2.781277000000000      0.294038000000000
H       0.408907000000000     -1.907994000000000      0.130086000000000
