5

C       0.000000000000000     -0.000140000000000      1.859161000000000
H      -0.888551000000000      0.513060000000000      1.494685000000000
H       0.888551000000000      0.513060000000000      1.494685000000000
H       0.000000000000000     -1.026339000000000      1.494868000000000
H       0.000000000000000      0.000089000000000      2.948284000000000
