17

C       0.000769168591720      0.036261057698813     -1.391966202094497
C       0.000768976234898     -1.187346595239796     -0.727386835312353
C       0.000769089730851     -1.223609850439183      0.664579309920381
C       0.000769048781799     -0.036261516689634      1.391967004508202
C       0.000769240950873      1.187348180821483      0.727387031384160
C       0.000769127685938      1.223609625765700     -0.664580469285939
H       0.000791447557993      0.064584007630803     -2.479149085833815
H       0.000788206304514     -2.114714613771545     -1.295505320176025
H       0.000791306767659     -2.179297647811643      1.183643079643072
H       0.000788335324960     -0.064582950069168      2.479148752957189
H       0.000791576308873      2.114713906687284      1.295505513776751
H       0.000788475742764      2.179297436774575     -1.183643841375685
C       6.346937006215471      0.000000018401164     -0.000000000133368
H       6.711096305280207      0.843738219981060     -0.590773967237179
H       6.711096310372721      0.089756021564662      1.026085848456545
H       5.254454102809228      0.000000014420834     -0.000000011302631
H       6.711096274237121     -0.933494625666166     -0.435311869933024
