10

C       0.365393745555502     -0.000015487155184     -0.000000202846398
H       0.731174154169940      0.514755508256815     -0.891898436680298
H       0.731172651167168      0.514619484420061      0.891977122577897
H       0.730190567973812     -1.030150680545578     -0.000078516585536
H      -0.726731176802890      0.000641326751587     -0.000001108152863
C       4.096592589497440      0.000015404662534     -0.000000206800380
H       5.188717130450109     -0.000642186734993      0.000001157418508
H       3.730814319603577     -0.514619347887621     -0.891978053871935
H       3.730812201247189     -0.514755839915625      0.891897922861578
H       3.731796947959280      1.030150938668557      0.000078305623653
