24

O       0.000000000000000      0.000000000000000      0.000000000000000
C      -0.664243940000000      1.036879150000000      0.000000000000000
N      -0.108663440000000      2.286389520000000      0.000000000000000
C      -0.864691940000000      3.427521950000000      0.000000000000000
C      -2.214231600000000      3.403909530000000      0.000000000000000
C      -2.909869860000000      2.131803890000000      0.000000000000000
N      -2.034924620000000      1.029301190000000      0.000000000000000
O      -4.115521520000000      1.958733960000000      0.000000000000000
H      -2.793840330000000      4.310799350000000      0.000000000000000
H       0.917908190000000      2.334329910000000      0.000000000000000
H      -2.469325800000000      0.116551330000000      0.000000000000000
H      -0.300037630000000      4.348024040000000      0.000000000000000
O       4.467021280000000      2.334329910000000      0.000000000000000
C       5.131265220000000      1.297450760000000      0.000000000000000
N       4.575684720000000      0.047940390000000      0.000000000000000
C       5.331713220000000     -1.093192050000000      0.000000000000000
C       6.681252880000000     -1.069579630000000      0.000000000000000
C       7.376891140000000      0.202526010000000      0.000000000000000
N       6.501945910000000      1.305028710000000      0.000000000000000
O       8.582542810000000      0.375595950000000      0.000000000000000
H       7.260861620000000     -1.976469440000000      0.000000000000000
H       3.549113090000000      0.000000000000000      0.000000000000000
H       6.936347090000000      2.217778580000000      0.000000000000000
H       4.767058910000000     -2.013694140000000      0.000000000000000
