10

C       0.000000000000000     -0.667578000000000      0.000000000000000
C       0.000000000000000      0.667578000000000      0.000000000000000
H      -0.001526000000000     -1.232253000000000     -0.923621000000000
H      -0.001526000000000     -1.232253000000000      0.923621000000000
H      -0.001526000000000      1.232253000000000      0.923621000000000
H      -0.001526000000000      1.232253000000000     -0.923621000000000
C       4.749960900000000      0.000000000000000      0.000000000000000
C       3.542697900000000      0.000000000000000      0.000000000000000
H       2.476809900000000      0.000000000000000      0.000000000000000
H       5.813386900000000      0.000000000000000      0.000000000000000
