20

C      -1.247189000000000     -1.171821000000000     -0.696139000000000
C      -1.247189000000000     -1.171821000000000      0.696139000000000
N      -0.258951000000000     -1.723577000000000      1.414480000000000
C       0.731533000000000     -2.265222000000000      0.696729000000000
C       0.731533000000000     -2.265222000000000     -0.696729000000000
N      -0.258951000000000     -1.723577000000000     -1.414480000000000
H      -2.063436000000000     -0.722320000000000     -1.247280000000000
H      -2.063436000000000     -0.722320000000000      1.247280000000000
H       1.548800000000000     -2.712828000000000      1.247560000000000
H       1.548800000000000     -2.712828000000000     -1.247560000000000
C      -0.338003000000000      2.080061000000000      1.130045000000000
C       0.854025000000000      1.359347000000000      1.130631000000000
N       1.470179000000000      0.990760000000000      0.000000000000000
C       0.854025000000000      1.359347000000000     -1.130631000000000
C      -0.338003000000000      2.080061000000000     -1.130045000000000
N      -0.952306000000000      2.452884000000000      0.000000000000000
H      -0.810376000000000      2.364303000000000      2.061864000000000
H       1.320858000000000      1.067061000000000      2.062399000000000
H       1.320858000000000      1.067061000000000     -2.062399000000000
H      -0.810376000000000      2.364303000000000     -2.061864000000000
