28

C      -0.252101518910490     -1.375422038547253      0.000000814304713
C      -0.264290070051309     -0.681080516438148     -1.208427941403812
C      -0.274216799743778      0.712167173969889     -1.207062768285731
C      -0.274418861353306      1.408880026413552      0.000000393762143
C      -0.274216739869700      0.712165704230182      1.207062282216326
C      -0.264290067753390     -0.681079453157822      1.208426751775612
H      -0.239264445557252     -2.462477643079886     -0.000000109533566
H      -0.257231274362756     -1.225053748787749     -2.149116524062525
H      -0.274904566191054      1.255694266800663     -2.148129457034455
H      -0.268649649795725      2.496167120531930      0.000000132787715
H      -0.274904499141657      1.255694512546284      2.148130318796105
H      -0.257231131707438     -1.225054386683012      2.149117208303159
H       2.037951647426013      0.070782797301906      0.000000040512726
N       3.045503657704283      0.055338267641399      0.000000036504228
C       3.872952063934731      1.157537441393124      0.000000016692918
C       5.173525477185430      0.743864063334447     -0.000000007742202
C       5.158553174840756     -0.694825200854028     -0.000000000195973
C       3.803864902977860     -1.086319671411973      0.000000021715830
C       3.409125975048324     -2.429507798361310      0.000000023953306
C       4.409731141117972     -3.383906139705533      0.000000009809836
C       5.770321336488582     -3.018378563759837     -0.000000003275534
C       6.152644056377592     -1.687935488739039     -0.000000009039322
H       3.453133081320816      2.157395650809236      0.000000023936075
H       6.049844726316440      1.378730542327171     -0.000000037054304
H       2.356774905985977     -2.698961395137125      0.000000029830054
H       4.143417115071689     -4.437998626781956      0.000000008289500
H       6.530135892403352     -3.795577965711546     -0.000000009478944
H       7.205401414773346     -1.415091368887421     -0.000000019069605
