24

C      -1.083295954792787     -0.000000038528072      0.000000000020300
C      -1.779500177796516     -1.205888901935013      0.000000000008245
C      -3.171928291263824     -1.205908240951013     -0.000000000002548
C      -3.868138917501902     -0.000000174248629     -0.000000000002666
C      -3.171928353723426      1.205908412567680     -0.000000000002548
C      -1.779499959230963      1.205888886174811      0.000000000008245
H       0.004249784645723     -0.000000026299301     -0.000000000000005
H      -1.235658374524338     -2.147692639366838      0.000000000005746
H      -3.715685131810483     -2.147778253991476     -0.000000000003489
H      -4.955679139832184      0.000000027998180     -0.000000000002674
H      -3.715685093871148      2.147778160269866     -0.000000000003489
H      -1.235658530255727      2.147692678773187      0.000000000005746
C       4.864752538085310     -0.000000521683589     -1.392434133784065
C       4.864772527500513      1.205888656036880     -0.696218496782104
C       4.864772528277750      1.205888241468995      0.696218683920851
C       4.864752537487873      0.000000312981377      1.392434098627805
C       4.864772527756060     -1.205888756976105      0.696218423177279
C       4.864772527951265     -1.205887740766114     -0.696218444682627
H       4.864770475877862      0.000000104586796     -2.479983853149999
H       4.864911022024227      2.147731020282301     -1.240000499424972
H       4.864911021958003      2.147731361055297      1.240000590187014
H       4.864770476148812     -0.000000042033793      2.479983518582603
H       4.864911021957285     -2.147731297348870      1.240000604812865
H       4.864911022202949     -2.147731297802552     -1.240000543495865
