10

C       0.000000000000000     -0.667578000000000      0.000000000000000
C       0.000000000000000      0.667578000000000      0.000000000000000
H      -0.001526000000000     -1.232253000000000     -0.923621000000000
H      -0.001526000000000     -1.232253000000000      0.923621000000000
H      -0.001526000000000      1.232253000000000      0.923621000000000
H      -0.001526000000000      1.232253000000000     -0.923621000000000
C       4.474759800000000      0.000000000000000      0.000000000000000
C       3.267496800000000      0.000000000000000      0.000000000000000
H       2.201608800000000      0.000000000000000      0.000000000000000
H       5.538185800000000      0.000000000000000      0.000000000000000
