15

C      -0.166422527988575      0.690112041604300      1.205824345037873
C      -0.198792544067397      1.385544177895419      0.000000718000398
C      -0.166424581922663      0.690112462662689     -1.205825276533415
C      -0.101689773932141     -0.700755022722528     -1.205826513023878
C      -0.069251312844823     -1.396189409814287     -0.000000072919255
C      -0.101691549643968     -0.700754351913843      1.205826538356353
H      -0.185875307043997      1.233427518912812      2.147378743203027
H      -0.243806184999076      2.471850612667885     -0.000000219249337
H      -0.185875185202314      1.233427457505833     -2.147378120701020
H      -0.070649155820833     -1.243553936656228     -2.147376341134365
H      -0.012812574720594     -2.481981727720930      0.000000137378436
H      -0.070648669858797     -1.243554313191631      2.147376312009618
N       4.839237366113266      0.227410559781005      0.000000179030519
C       3.686231019250563      0.169611238843028      0.000000153567054
H       2.614393348202404      0.115946170983294      0.000000144166289
