28

C      -0.052652080000000     -1.393225780000000      0.000000000000000
C      -0.025543350000000     -0.696940100000000     -1.208292000000000
C       0.026348250000000      0.696724230000000     -1.208365000000000
C       0.051042260000000      1.393657540000000      0.000000000000000
C       0.026348250000000      0.696724230000000      1.208365000000000
C      -0.025543350000000     -0.696940100000000      1.208292000000000
H      -0.097430660000000     -2.473655970000000      0.000000000000000
H      -0.040509760000000     -1.237360070000000     -2.144590000000000
H       0.050955580000000      1.236531290000000     -2.144838000000000
H       0.089657640000000      2.474412420000000      0.000000000000000
H       0.050955580000000      1.236531290000000      2.144838000000000
H      -0.040509760000000     -1.237360070000000      2.144590000000000
H       3.346329040000000      0.000000000000000      0.000000000000000
N       4.353646440000000      0.005056390000000      0.000000000000000
C       5.135300630000000      1.132604940000000      0.000000000000000
C       6.464185350000000      0.772354620000000      0.000000000000000
C       6.505578840000000     -0.653193160000000      0.000000000000000
C       5.155734200000000     -1.104920880000000      0.000000000000000
C       4.821074540000000     -2.462094970000000      0.000000000000000
C       5.863266840000000     -3.376178890000000      0.000000000000000
C       7.207590280000000     -2.951641290000000      0.000000000000000
C       7.537930160000000     -1.606705570000000      0.000000000000000
H       4.681606400000000      2.109594760000000      0.000000000000000
H       7.299575160000000      1.451489920000000      0.000000000000000
H       3.788685590000000     -2.785730810000000      0.000000000000000
H       5.641549400000000     -4.434822780000000      0.000000000000000
H       7.993655200000000     -3.694570140000000      0.000000000000000
H       8.574255940000000     -1.294593880000000      0.000000000000000
