8

N      -0.756343128718444     -0.855687805503361      0.000000095346844
H      -1.359811141123813     -0.872255066737924     -0.816977884583978
H      -1.359811005790535     -0.872255121668428      0.816977768705064
H      -0.282200387063714      0.043122612115988      0.000000000400174
N       2.224542044660159     -0.005881838351664     -0.000000053641924
H       2.828009330782994      0.010684945965822     -0.816977658325398
H       1.750398400345441     -0.904692742705880     -0.000000013808519
H       2.828009381753988      0.010684965360731      0.816977748036000
