10

C      -1.692156230638018     -1.187498513670119     -0.000000000000000
O      -1.304300875701734      0.066364624715191     -0.000000000000000
O      -0.992296120613370     -2.179917685431707     -0.000000000000000
H      -2.789255950836565     -1.257289638995799     -0.000000000000000
H      -0.312405323917434      0.098959297348772     -0.000000000000000
C       2.109354992946569     -1.060960174007451     -0.000000000000000
O       1.721511108823886     -2.314831840290668      0.000000000000000
O       1.409455216791813     -0.068569151066840     -0.000000000000000
H       3.206454629802774     -0.991159595226887     -0.000000000000000
H       0.729620237266918     -2.347425063250999     -0.000000000000000
