13
phenol dimer Monomer A
C   -2.00710600    0.76384600   -0.10835100
O   -1.38850400    1.92985200   -0.44312100
H   -0.52381200    1.96465200   -0.00646100
C   -1.46308100   -0.15191200    0.79499300
C   -2.14757900   -1.32950900    1.08836800
C   -3.37432100   -1.60314300    0.48958600
C   -3.91437300   -0.68385500   -0.40910300
C   -3.23705000    0.49296100   -0.70961300
H   -0.51065100    0.05665700    1.26425600
H   -1.71511300   -2.03214500    1.78784200
H   -3.90246600   -2.51738700    0.71979500
H   -4.86707300   -0.88229400   -0.88113200
H   -3.64316600    1.21343400   -1.40575900
