24
uracil dimer (stack) Dimer
N    2.01135900   -1.21320700   -0.09806700
C    2.02570800   -0.69718000   -1.36440300
H    2.29752100   -1.39105900   -2.14564600
C    1.71452300    0.59196500   -1.61248900
H    1.72728700    0.99084700   -2.61200500
C    1.30896000    1.45753400   -0.52058900
O    0.92059300    2.61108600   -0.62604600
N    1.37688800    0.83974500    0.73463600
H    1.05180400    1.38622300    1.52337100
C    1.64599100   -0.48521100    1.01872700
O    1.56110900   -0.97180600    2.12980600
H    2.12946300   -2.20150500    0.05681300
N   -2.01135900    1.21320700   -0.09806700
C   -2.02570800    0.69718000   -1.36440300
H   -2.29752100    1.39105900   -2.14564600
C   -1.71452300   -0.59196500   -1.61248900
H   -1.72728700   -0.99084700   -2.61200500
C   -1.30896000   -1.45753400   -0.52058900
O   -0.92059300   -2.61108600   -0.62604600
N   -1.37688800   -0.83974500    0.73463600
H   -1.05180400   -1.38622300    1.52337100
C   -1.64599100    0.48521100    1.01872700
O   -1.56110900    0.97180600    2.12980600
H   -2.12946300    2.20150500    0.05681300
