15

C       0.847523232781008     -0.636764811277844     -1.205947242180409
C       0.447179471946172      0.698117064194872     -1.205966266643448
C       0.247211734668067      1.367942165831329      0.000000058105197
C       0.447175375105252      0.698115066691392      1.205963867478671
C       0.847519564828528     -0.636764912671909      1.205944261393995
C       1.048320159064813     -1.304906801950494     -0.000001161837207
H       1.002113796841130     -1.152895203075240     -2.150200365187731
H       0.281349228825732      1.217443759731680     -2.147020534043499
H      -0.082681469242999      2.404968170458302     -0.000002009331626
H       0.281341936870128      1.217444061746513      2.147019441125031
H       1.002107606298450     -1.152898467466753      2.150197928430170
H       1.363535966392427     -2.345406024832524     -0.000003591963509
O      -2.797985419092420     -0.042558239616094      0.000005046790343
H      -2.853328708561708     -1.005604551226450     -0.000000695810391
H      -1.847504978390539      0.125496005406609      0.000005966846010
