15

N       0.279301000000000      2.406839000000000     -0.605752000000000
C      -1.084857000000000      2.445746000000000     -0.551161000000000
H      -1.659440000000000      3.023029000000000     -1.256090000000000
N      -1.597712000000000      1.717988000000000      0.428754000000000
C      -0.489725000000000      1.171436000000000      1.030191000000000
C      -0.346137000000000      0.291471000000000      2.117234000000000
N      -1.418709000000000     -0.167777000000000      2.810144000000000
H      -1.238875000000000     -0.959480000000000      3.404758000000000
H      -2.291873000000000     -0.178822000000000      2.307362000000000
N       0.885763000000000     -0.070076000000000      2.491949000000000
C       1.935235000000000      0.407288000000000      1.796802000000000
H       2.906033000000000      0.078841000000000      2.145818000000000
N       1.940978000000000      1.224202000000000      0.740220000000000
C       0.695219000000000      1.577986000000000      0.406398000000000
H       0.861007000000000      2.829804000000000     -1.310450000000000
