30
adenine ... thymine (WC) Dimer
N    0.00000000    0.00000000    0.00000000
C   -0.73868506   -0.15788977    1.11035541
C   -2.13945288   -0.16805356    0.96471256
C   -2.62949719   -0.00866579   -0.33120135
N   -1.91830983    0.15263475   -1.45484404
C   -0.61426222    0.14365987   -1.19354712
N   -3.15298100   -0.31069720    1.88351867
C   -4.24746601   -0.23720033    1.14487498
N   -3.99425073   -0.05660450   -0.18703010
N   -0.13617941   -0.28943385    2.30042802
H    0.05516135    0.26595902   -2.03565509
H   -5.25258545   -0.30895833    1.52540657
H   -4.66840486    0.02624532   -0.92965682
H    0.87687643   -0.32910573    2.35981141
H   -0.70858132   -0.45240707    3.10824060
N    4.67407661    0.15562755   -1.12807516
C    5.36694723   -0.03157353    0.03965251
C    4.74533144   -0.21318055    1.22599931
C    3.28969042   -0.20545954    1.23795900
N    2.67882321   -0.00891377    0.01310903
C    3.29243278    0.17623919   -1.20541710
C    5.46460317   -0.41995094    2.51700092
O    2.62130834   -0.36203166    2.26165430
O    2.69420335    0.34250657   -2.25336777
H    5.15438238    0.28845835   -2.00230090
H    1.63696697    0.00000000    0.00000000
H    6.44419193   -0.02477987   -0.04965000
H    5.19502296    0.35484120    3.23301874
H    5.18391503   -1.37309824    2.96239753
H    6.54237465   -0.40361701    2.36838509
