8

N      -0.634676926023285     -0.843305562328158      0.000000635828927
H      -1.238260645813289     -0.854844328096283     -0.816983509473448
H      -1.238260235456585     -0.854844291138663      0.816982887256840
H      -0.153046551140068      0.051523035860685     -0.000000002114145
N       2.353277300893243     -0.018264611897426      0.000000327000419
H       2.956861338381128     -0.006725711060763     -0.816983440322600
H       1.871647393577632     -0.913092858840664     -0.000000011790099
H       2.956861162087918     -0.006725706827832      0.816983146840823
