15

C       0.780612000000000     -0.609888000000000     -1.207543000000000
C       0.478404000000000      0.751041000000000     -1.207904000000000
C       0.327659000000000      1.431857000000000      0.000000000000000
C       0.478404000000000      0.751041000000000      1.207904000000000
C       0.780612000000000     -0.609888000000000      1.207543000000000
C       0.932151000000000     -1.289961000000000      0.000000000000000
H       0.896669000000000     -1.137605000000000     -2.144148000000000
H       0.357390000000000      1.278209000000000     -2.144055000000000
H       0.091859000000000      2.487141000000000      0.000000000000000
H       0.357390000000000      1.278209000000000      2.144055000000000
H       0.896669000000000     -1.137605000000000      2.144148000000000
H       1.169006000000000     -2.345167000000000      0.000000000000000
O      -2.788527000000000     -0.274485000000000      0.000000000000000
H      -2.622911000000000     -1.219083000000000      0.000000000000000
H      -1.901510000000000      0.097911000000000      0.000000000000000
