10

C      -1.272924447102514     -1.225695061554738     -0.000000000000000
O      -0.910360341754225      0.035720216939320     -0.000000000000000
O      -0.553240581109233     -2.203834239941106     -0.000000000000000
H      -2.368403067302904     -1.317520866668756     -0.000000000000000
H       0.080674154027917      0.088270550660689     -0.000000000000000
C       2.525281233648562     -1.022771305045523      0.000000000000000
O       2.162719645493365     -2.284187962623982     -0.000000000000000
O       1.805602468716076     -0.044630177521799      0.000000000000000
H       3.620757775539095     -0.930939216226167      0.000000000000000
H       1.171685829391509     -2.336739623254197     -0.000000000000000
