24

C      -1.190661550435071     -0.000001151108764      0.000000016898250
C      -1.888765666028527     -1.204966174836880      0.000000010232002
C      -3.279000659683554     -1.205201819513163      0.000000001496899
C      -3.976208669562461      0.000001185692975     -0.000000003667328
C      -3.279000525253813      1.205199435262960      0.000000001907182
C      -1.888766022526578      1.204968282288297      0.000000012720529
H      -0.105526496119333      0.000000154821568      0.000000023588578
H      -1.343122655698563     -2.146293230769785      0.000000018199937
H      -3.821555726790863     -2.147765751352061     -0.000000003675744
H      -5.063321005837120     -0.000000133854795     -0.000000014761842
H      -3.821556063038797      2.147766403743508     -0.000000003912401
H      -1.343122775266572      2.146292783209845      0.000000020452947
C       2.301881313916107      0.000005395232852     -1.393471424350805
C       2.300187834274696      1.206848352579098     -0.696815956502614
C       2.300187853998050      1.206856742668442      0.696814642936034
C       2.301881197870938     -0.000005243162686      1.393471604425156
C       2.300187727747844     -1.206848290046485      0.696815921967063
C       2.300187713272300     -1.206856905193534     -0.696814697306905
H       2.293461788215916     -0.000000334349136     -2.480071443516242
H       2.291100990493146      2.148567622766932     -1.239638000465747
H       2.291100981117750      2.148565458572887      1.239637282964765
H       2.293461771434083      0.000000305730845      2.480071585803097
H       2.291100885926011     -2.148567642361987      1.239638149457883
H       2.291100988572438     -2.148565510475713     -1.239637026117047
