16
indole ... benzene (stack) Monomer B
H   -2.94176500    0.89538300    2.22390500
C   -2.02206700    0.42585400    1.90135500
C   -0.81494200    1.07404500    2.10669800
H   -0.78515300    2.04438100    2.58560900
C    0.37042900    0.44928500    1.68474600
C    1.75086200    0.80389400    1.71940000
H    2.18701100    1.69982800    2.12759000
C    2.44513600   -0.23107400    1.13533100
N    1.56464600   -1.21378100    0.75553800
C    0.28612100   -0.82694900    1.06187500
C   -0.92846700   -1.48531200    0.86069400
H   -0.97292000   -2.45548500    0.38340100
C   -2.07928500   -0.84176700    1.28764400
H   -3.03899700   -1.32038500    1.14684000
H    1.80757400   -2.03669600    0.23330400
H    3.50287900   -0.34853400    0.96952300
