10
ethene ... ethyne Dimer
C    0.00000000   -0.66757800   -2.12465900
C    0.00000000    0.66757800   -2.12465900
H    0.92362100   -1.23225300   -2.12618500
H   -0.92362100   -1.23225300   -2.12618500
H   -0.92362100    1.23225300   -2.12618500
H    0.92362100    1.23225300   -2.12618500
C    0.00000000    0.00000000    2.90050300
C    0.00000000    0.00000000    1.69324000
H    0.00000000    0.00000000    0.62735200
H    0.00000000    0.00000000    3.96392900
