10
formic acid dimer Dimer
C   -1.43494426   -1.23664395    0.00000000
O   -0.99500953    0.00187669    0.00000000
O   -0.75203070   -2.24846554    0.00000000
H   -2.52766058   -1.27695058    0.00000000
H    0.00000000    0.00000000    0.00000000
C    3.18840008   -1.01182159    0.00000000
O    2.74846535   -2.25034224    0.00000000
O    2.50548652    0.00000000    0.00000000
H    4.28111640   -0.97151496    0.00000000
H    1.75345582   -2.24846554    0.00000000
