12

C      -0.126075526974366     -0.959051081929627      0.000000000000000
O       0.497512586619706      0.093491798623921      0.000000000000000
N       0.402853110229492     -2.193482347644890      0.000000000000000
H      -0.202891018263242     -2.998213292652638      0.000000000000001
H       1.419219728874334     -2.335065895911883      0.000000000000000
H      -1.231178539723052     -0.959005117484344      0.000000000000000
C       3.869348308270296     -1.428028712405962     -0.000000000000000
O       3.245974171273985     -2.480699077777939     -0.000000000000000
N       3.340232703586573     -0.193683343158985     -0.000000000000000
H       3.945904282771314      0.611087561053042      0.000000000000000
H       2.323846266062550     -0.052209377998531      0.000000000000000
H       4.974453106637365     -1.427763473154580     -0.000000000000000
