10

C      -0.000000015795051     -0.000044814613724      1.865649325131163
H      -0.891961235993718      0.514837397968406      1.500174238917676
H       0.891961257848323      0.514837430231581      1.500174259165119
H      -0.000000013005955     -1.029962872944036      1.500217542227907
H       0.000000006547441      0.000112475899603      2.957761715261898
C      -0.000000015778611      0.000044843117173     -1.865649368703457
H      -0.000000051902461     -0.000112525544458     -2.957761594017593
H      -0.891961155435529     -0.514837371234320     -1.500174234545754
H       0.891961245515642     -0.514837420346257     -1.500174273431507
H      -0.000000002691719      1.029962885773841     -1.500217625419690
