28

C       0.001590624315524     -0.000377942633533     -0.000122126144595
C      -0.037904508646648     -1.177910024067579      0.742007558360577
C      -0.008977978988424     -2.410273825566561      0.094448319670556
C       0.059362522679693     -2.465091296773576     -1.295229206833785
C       0.098714253598065     -1.287565964952472     -2.037356854446366
C       0.069825058199591     -0.055202674797914     -1.389807889754489
H      -0.020875842063950      0.962162309492555      0.505623778271475
H      -0.091336466104974     -1.135093463460385      1.827403960337499
H      -0.039806473957334     -3.329995526482556      0.674035387957866
H       0.081914913357575     -3.427601783190417     -1.801001491363694
H       0.151896536772957     -1.330422414959943     -3.122750749443210
H       0.100531958797055      0.864492336286476     -1.969445291833330
H       6.306713311198476     -0.575845109402206      3.504150549203084
C       6.378721413327910     -0.572138472719276      2.419590337146819
C       6.334680150674442      0.630037091579997      1.735482491948415
H       6.228703345359380      1.569519010711577      2.273249808002054
C       6.429291242607494      0.615635489283688      0.333737744372456
C       6.421545122752932      1.634362722134170     -0.685541854022468
H       6.331970512484722      2.701282666218650     -0.530644228452325
C       6.548892588791930      0.999186683517070     -1.884579351619962
N       6.636522291145190     -0.361517901851290     -1.680912439435940
C       6.565845527302193     -0.623078722410540     -0.330605140624425
C       6.610977316692946     -1.842172440243075      0.354324375877315
H       6.716511496916971     -2.786243017592490     -0.174937835623853
C       6.515533022266442     -1.795095717675673      1.733989532444302
H       6.546623430592058     -2.721241145887891      2.302795055150019
H       6.736442683927775     -1.054923061844193     -2.403565181168729
H       6.585792470875677      1.404364129343930     -2.887481245375063
