24
uracil dimer (HB) Dimer
O    0.00000000    0.00000000    0.00000000
C   -0.66424394    1.03687915    0.00000000
N   -0.10866344    2.28638952    0.00000000
C   -0.86469194    3.42752195    0.00000000
C   -2.21423160    3.40390953    0.00000000
C   -2.90986986    2.13180389    0.00000000
N   -2.03492462    1.02930119    0.00000000
O   -4.11552152    1.95873396    0.00000000
H   -2.79384033    4.31079935    0.00000000
H    0.91790819    2.33432991    0.00000000
H   -2.46932580    0.11655133    0.00000000
H   -0.30003763    4.34802404    0.00000000
O    3.04737605    2.33432991    0.00000000
C    3.71161999    1.29745076    0.00000000
N    3.15603948    0.04794039    0.00000000
C    3.91206798   -1.09319205    0.00000000
C    5.26160764   -1.06957963    0.00000000
C    5.95724591    0.20252601    0.00000000
N    5.08230067    1.30502871    0.00000000
O    7.16289757    0.37559595    0.00000000
H    5.84121638   -1.97646944    0.00000000
H    2.12946785    0.00000000    0.00000000
H    5.51670185    2.21777858    0.00000000
H    3.34741368   -2.01369414    0.00000000
