12

C       2.511900000000000      1.625015000000000      0.000000000000000
C       2.713009000000000      0.957854000000000     -1.208292000000000
C       3.117782000000000     -0.376744000000000     -1.208365000000000
C       3.321385000000000     -1.043731000000000      0.000000000000000
C       3.117782000000000     -0.376744000000000      1.208365000000000
C       2.713009000000000      0.957854000000000      1.208292000000000
H       2.202404000000000      2.661136000000000      0.000000000000000
H       2.551176000000000      1.473691000000000     -2.144590000000000
H       3.270300000000000     -0.895141000000000     -2.144838000000000
H       3.636814000000000     -2.078152000000000      0.000000000000000
H       3.270300000000000     -0.895141000000000      2.144838000000000
H       2.551176000000000      1.473691000000000      2.144590000000000
