24

C       0.629051510000000     -1.244058480000000      0.000000000000000
C       0.314072290000000     -0.622134660000000      1.206205000000000
C       0.314072290000000     -0.622134660000000     -1.206205000000000
C      -0.314813550000000      0.621699240000000      1.206954000000000
C      -0.627568990000000      1.244929310000000      0.000000000000000
C      -0.314813550000000      0.621699240000000     -1.206954000000000
H       0.563930580000000     -1.102778150000000     -2.142315000000000
H      -0.559388820000000      1.104085750000000     -2.143798000000000
H      -1.116894120000000      2.209685920000000      0.000000000000000
H      -0.559388820000000      1.104085750000000      2.143798000000000
H       0.563930580000000     -1.102778150000000      2.142315000000000
H       1.129721710000000     -2.202462660000000      0.000000000000000
C       2.759649220000000      1.244058480000000      0.000000000000000
C       3.074628440000000      0.622134660000000     -1.206205000000000
C       3.074628440000000      0.622134660000000      1.206205000000000
C       3.703514280000000     -0.621699240000000     -1.206954000000000
C       4.016269730000000     -1.244929310000000      0.000000000000000
C       3.703514280000000     -0.621699240000000      1.206954000000000
H       2.258979020000000      2.202462660000000      0.000000000000000
H       2.824770160000000      1.102778150000000      2.142315000000000
H       3.948089550000000     -1.104085750000000      2.143798000000000
H       4.505594860000000     -2.209685920000000      0.000000000000000
H       3.948089550000000     -1.104085750000000     -2.143798000000000
H       2.824770160000000      1.102778150000000     -2.142315000000000
