12
indole ... benzene (T-shape) Monomer A
C    2.51190000    1.62501500    0.00000000
C    2.71300900    0.95785400   -1.20829200
C    3.11778200   -0.37674400   -1.20836500
C    3.32138500   -1.04373100    0.00000000
C    3.11778200   -0.37674400    1.20836500
C    2.71300900    0.95785400    1.20829200
H    2.20240400    2.66113600    0.00000000
H    2.55117600    1.47369100   -2.14459000
H    3.27030000   -0.89514100   -2.14483800
H    3.63681400   -2.07815200    0.00000000
H    3.27030000   -0.89514100    2.14483800
H    2.55117600    1.47369100    2.14459000
