16

C       0.001638157217887      0.000535289541947     -1.205890278812876
C      -0.092046218120648     -0.689356967906254     -0.000000036392811
C       0.001638194091028      0.000535559516813      1.205890308772342
C       0.189354099073591      1.380265228361710      1.205887536971217
C       0.283354806412898      2.070109914388613      0.000000231616984
C       0.189354123880296      1.380265394844827     -1.205887892520056
H      -0.071929070620691     -0.538200264161138     -2.147762830830354
H      -0.238556550106775     -1.766998277144598     -0.000000009366324
H      -0.071929076090044     -0.538200235968277      2.147762863008653
H       0.262525832252910      1.919099795182959      2.147729964138563
H       0.430279814549874      3.147686584556797      0.000000004530720
H       0.262525806089075      1.919099648157147     -2.147729831821446
N       6.161357520980762     -0.168426305354749     -0.000000002002231
H       6.530734350006703      0.315586348190464     -0.813266717796655
H       6.530734346266804      0.315586349142592      0.813266715692714
H       5.158823081880739     -0.003982861762968      0.000000003579301
