24

N      -0.277905010000000      1.293679540000000      0.176141970000000
C      -0.313143400000000      0.778657200000000     -1.090194030000000
H      -0.556628450000000      1.482976300000000     -1.871437030000000
C      -0.054429330000000     -0.522034140000000     -1.338280030000000
H      -0.083339180000000     -0.920071820000000     -2.337796030000000
C       0.315741830000000     -1.403319770000000     -0.246380030000000
O       0.657066630000000     -2.571655560000000     -0.351837030000000
N       0.272892520000000     -0.783286380000000      1.008844970000000
H       0.575575190000000     -1.342483140000000      1.797579970000000
C       0.057676400000000      0.551482080000000      1.292935970000000
O       0.162197800000000      1.034239710000000      2.404014970000000
H      -0.355882040000000      2.285950210000000      0.331021970000000
N       2.633634130000000     -1.293679540000000      0.176141970000000
C       2.668872520000000     -0.778657200000000     -1.090194030000000
H       2.912357580000000     -1.482976300000000     -1.871437030000000
C       2.410158450000000      0.522034140000000     -1.338280030000000
H       2.439068300000000      0.920071820000000     -2.337796030000000
C       2.039987290000000      1.403319770000000     -0.246380030000000
O       1.698662490000000      2.571655560000000     -0.351837030000000
N       2.082836610000000      0.783286380000000      1.008844970000000
H       1.780153930000000      1.342483140000000      1.797579970000000
C       2.298052720000000     -0.551482080000000      1.292935970000000
O       2.193531330000000     -1.034239710000000      2.404014970000000
H       2.711611160000000     -2.285950210000000      0.331021970000000
