8

N      -0.267151492649980     -0.812803556174127     -0.000000530189391
H      -0.870826689274592     -0.812123225027375     -0.816999624194563
H      -0.870827075802301     -0.812123179813537      0.817000017371800
H       0.232547925072999      0.072062698085299      0.000000028443175
N       2.736959280700770     -0.048766454605706      0.000000427641448
H       3.340634888017552     -0.049446868533408     -0.817000034116200
H       2.237259915482348     -0.933632695424969     -0.000000051074022
H       3.340634526799622     -0.049446795042826      0.816999641720505
