30

N       0.067390760000000      1.213806100000000     -1.171192510000000
C      -0.034440690000000      0.160916030000000     -2.035179690000000
H      -0.037909100000000      0.307694670000000     -3.102311440000000
N      -0.122286500000000     -1.014214490000000     -1.431659390000000
C      -0.061278150000000     -0.690156060000000     -0.097738530000000
C      -0.083866470000000     -1.480006430000000      1.065121980000000
N      -0.207551290000000     -2.830167860000000      1.008466280000000
H       0.020236000000000     -3.318294510000000      1.858492780000000
H       0.100823980000000     -3.261839820000000      0.151791830000000
N      -0.015107290000000     -0.872886240000000      2.254820440000000
C       0.095534440000000      0.468473590000000      2.286592140000000
H       0.148443660000000      0.902433540000000      3.277055540000000
N       0.150791630000000      1.330817540000000      1.268232410000000
C       0.061278150000000      0.690156060000000      0.097738530000000
H       0.213123820000000      2.178532040000000     -1.420082560000000
N       4.907019490000000      1.318912570000000      0.115169330000000
C       4.945336240000000      0.544134790000000      1.248235460000000
H       5.078498890000000      1.084216460000000      2.174491250000000
C       4.824685610000000     -0.802036030000000      1.213306350000000
C       4.877136240000000     -1.664227790000000      2.429380730000000
H       3.921353020000000     -2.161867440000000      2.585037720000000
H       5.637978310000000     -2.435033980000000      2.315487570000000
H       5.100690710000000     -1.070628980000000      3.313538180000000
C       4.630206860000000     -1.440326450000000     -0.080379660000000
O       4.469807550000000     -2.640081850000000     -0.255033820000000
N       4.641401780000000     -0.560837890000000     -1.168484490000000
H       4.465712890000000     -0.977998740000000     -2.072617560000000
C       4.726344170000000      0.814169730000000     -1.152798150000000
O       4.643675710000000      1.513854060000000     -2.149163260000000
H       4.945385580000000      2.322516740000000      0.179118560000000
