30

N       0.961134277664910     -0.163437021304975     -0.412212861819627
C       1.692731158668877     -0.149231201211209      0.721660350904161
C       3.085016743523046     -0.019943891642044      0.614793466270787
C       3.591052480289564      0.086398501196891     -0.670782170856339
N       2.889745074714843      0.078785717330334     -1.818615946454281
C       1.599125590069081     -0.047602437290353     -1.595273280991071
N       4.090213112156768      0.029624495518760      1.569316304200592
C       5.172872933666920      0.160874241206033      0.856557523257901
N       4.945045970520555      0.201874125070288     -0.500049369014472
N       1.080505571595139     -0.277540355083027      1.913375138852873
H       0.961704408113524     -0.060576995516106     -2.479080401465677
H       6.177433203144630      0.234339462850234      1.256529503808226
H       5.628153789491438      0.299021085120720     -1.235543850459999
H       0.065487458611887     -0.251340550739794      1.962718171173614
H       1.637010485807687     -0.177338829753846      2.747723676175122
N      -4.000801225711342      0.046799862908401     -1.529861768386051
C      -4.652375143257876      0.131558493879765     -0.318038298373014
C      -4.003689387463163      0.065834169909244      0.854193714723397
C      -2.552199769683979     -0.102133223096112      0.825280059559974
N      -1.986221340306047     -0.200184368248228     -0.429657394616918
C      -2.630141582827169     -0.113788850489754     -1.643418039043057
C      -4.640775225878036      0.153496823076630      2.199286684443834
O      -1.859865430075800     -0.157928238020498      1.839422510485281
O      -2.061035359535177     -0.173398782050882     -2.714455383910208
H      -4.503080436960138      0.109981752251948     -2.403082214408640
H      -0.964678404564455     -0.313942401457911     -0.470554711307619
H      -5.730449032728275      0.257051768174871     -0.374927564050826
H      -4.421552235493806     -0.743521746275197      2.785573825155435
H      -4.228929218816201      0.994818922802496      2.764126532926996
H      -5.726991385153364      0.273160283058254      2.130506996247175
