17

C       0.000011000000000      0.036291080000000     -1.393218000000000
C      -0.000011070000000     -1.188401880000000     -0.728035930000000
C       0.000010920000000     -1.224707790000000      0.665180080000000
C      -0.000011000000000     -0.036296740000000      1.393204000000000
C       0.000011070000000      1.188416210000000      0.728037920000000
C      -0.000010920000000      1.224699130000000     -0.665168080000000
H       0.001567000000000      0.064448010000000     -2.474274000000000
H       0.001550870000000     -2.110540920000000     -1.292958870000000
H       0.001566860000000     -2.175007760000000      1.181323140000000
H       0.001551000000000     -0.064464680000000      2.474261000000000
H       0.001567130000000      2.110560250000000      1.292950870000000
H       0.001551140000000      2.175006090000000     -1.181303140000000
C       3.189917800000000     -0.000000070000000      0.000000000000000
H       3.553675850000000      0.838173870000000     -0.586878050000000
H       3.553675810000000      0.089163970000000      1.019318990000000
H       2.103968800000000      0.000000000000000      0.000000000000000
H       3.553675740000000     -0.927338120000000     -0.432440940000000
