28

C      -0.381673269280291     -1.360132315756440      0.000000505338003
C      -0.389703429905071     -0.665718439466420     -1.208416542899044
C      -0.390992536400849      0.727537974710211     -1.207047181110809
C      -0.386969191130127      1.424261969749896      0.000000374644148
C      -0.390993160652172      0.727536674669866      1.207046206696818
C      -0.389704056986053     -0.665717345540113      1.208415485278297
H      -0.375408874816414     -2.447229598495973     -0.000000183293268
H      -0.385927216985069     -1.209763425313119     -2.149054163200967
H      -0.388428640639161      1.271047865748304     -2.148113275689544
H      -0.374492438522383      2.511511321688535     -0.000000078564265
H      -0.388429635078297      1.271048328096713      2.148113836620771
H      -0.385928287144827     -1.209763754135010      2.149054635613436
H       1.916448977055459      0.079869225584258      0.000000041367878
N       2.923840987898415      0.056249900115972      0.000000056223057
C       3.760399483297161      1.151548036215553      0.000000036121516
C       5.057504234272052      0.726972906146153      0.000000014083462
C       5.030470670811417     -0.711543081751984      0.000000013278974
C       3.672598052928253     -1.091669585632498      0.000000031315248
C       3.266480410210896     -2.431449147197329      0.000000028694208
C       4.258997356999309     -3.394211259963830      0.000000010328627
C       5.622609951224707     -3.040152409195584     -0.000000001581462
C       6.016194587682426     -1.712982518639629     -0.000000000538818
H       3.348864046419967      2.154858529165062      0.000000046302414
H       5.939208835143162      1.354363975484490     -0.000000007068089
H       2.211953924008631     -2.691850897475869      0.000000050079142
H       3.983795879143253     -4.446010123793383      0.000000004662807
H       6.375765949660524     -3.823796995670243     -0.000000007887800
H       7.071257361474769     -1.449067212959173     -0.000000006919790
