28

C       0.277147970659329     -1.444538219888842      0.000000342837531
C       0.247588167258521     -0.750704724417217     -1.208427731370624
C       0.202692642577903      0.641843014909525     -1.207058462505462
C       0.185052839576510      1.338347847091144      0.000000098736106
C       0.202693234211925      0.641842996367834      1.207058836212910
C       0.247588703469573     -0.750704611320684      1.208428077815769
H       0.317134790878452     -2.530927106767402      0.000000261385331
H       0.268567724619824     -1.294289522342135     -2.149127447190735
H       0.188189690224760      1.185154674091321     -2.148140940138600
H       0.163666091383483      2.425449131555984      0.000000134173004
H       0.188190858276771      1.185154812521727      2.148141288097785
H       0.268568591664159     -1.294289364836418      2.149127925505134
H       2.529761334577797      0.062397314101083     -0.000000345142374
N       3.537395006503548      0.071349717697845     -0.000000440413432
C       4.337958078278962      1.193230309694067     -0.000000420574006
C       5.648161777530007      0.811082718443183     -0.000000255823897
C       5.667908038809230     -0.627547851076094     -0.000000088870195
C       4.323087810689483     -1.051650014283041     -0.000000292189850
C       3.960848272635374     -2.403961720191628     -0.000000414647367
C       4.984210521250182     -3.333892078512028     -0.000000189766333
C       6.335578079469884     -2.935629422811485      0.000000198390823
C       6.685702495334395     -1.596344647309934      0.000000254524723
H       3.894109386074942      2.182657345388084     -0.000000534120852
H       6.508924217856324      1.466908988307909     -0.000000335921286
H       2.915333776230510     -2.698696365747559     -0.000000698181319
H       4.743353018204850     -4.394082558760410     -0.000000319629216
H       7.113861582433517     -3.694322135303497      0.000000454569428
H       7.731554275780740     -1.298087278941578      0.000000587633961
