5

C      -1.887838513196068     -0.195163148973730      0.000000000000000
O      -1.490422882199849      1.085185223533743      0.000000000000000
O      -1.149294879731004     -1.142951960263444      0.000000000000000
H      -2.985753396499905     -0.244535492051101      0.000000000000000
H      -0.517622344579773      1.073238370208323      0.000000000000000
