26

C      -2.007106000000000      0.763846000000000     -0.108351000000000
O      -1.388504000000000      1.929852000000000     -0.443121000000000
H      -0.523812000000000      1.964652000000000     -0.006461000000000
C      -1.463081000000000     -0.151912000000000      0.794993000000000
C      -2.147579000000000     -1.329509000000000      1.088368000000000
C      -3.374321000000000     -1.603143000000000      0.489586000000000
C      -3.914373000000000     -0.683855000000000     -0.409103000000000
C      -3.237050000000000      0.492961000000000     -0.709613000000000
H      -0.510651000000000      0.056657000000000      1.264256000000000
H      -1.715113000000000     -2.032145000000000      1.787842000000000
H      -3.902466000000000     -2.517387000000000      0.719795000000000
H      -4.867073000000000     -0.882294000000000     -0.881132000000000
H      -3.643166000000000      1.213434000000000     -1.405759000000000
O       1.353117000000000      1.938272000000000      0.472313000000000
C       2.036975000000000      0.786504000000000      0.149549000000000
H       1.784285000000000      2.348749000000000      1.229711000000000
C       1.590403000000000      0.069686000000000     -0.957415000000000
C       2.241737000000000     -1.106977000000000     -1.312811000000000
C       3.331567000000000     -1.566560000000000     -0.574864000000000
C       3.769684000000000     -0.839690000000000      0.528644000000000
C       3.122484000000000      0.338350000000000      0.896049000000000
H       0.744551000000000      0.436798000000000     -1.521858000000000
H       1.892146000000000     -1.664973000000000     -2.170184000000000
H       3.833023000000000     -2.481154000000000     -0.856667000000000
H       4.613763000000000     -1.185010000000000      1.109263000000000
H       3.459885000000000      0.903038000000000      1.756949000000000
