24

C       0.629051510000000     -1.244058480000000      0.000000000000000
C       0.314072290000000     -0.622134660000000      1.206205000000000
C       0.314072290000000     -0.622134660000000     -1.206205000000000
C      -0.314813550000000      0.621699240000000      1.206954000000000
C      -0.627568990000000      1.244929310000000      0.000000000000000
C      -0.314813550000000      0.621699240000000     -1.206954000000000
H       0.563930580000000     -1.102778150000000     -2.142315000000000
H      -0.559388820000000      1.104085750000000     -2.143798000000000
H      -1.116894120000000      2.209685920000000      0.000000000000000
H      -0.559388820000000      1.104085750000000      2.143798000000000
H       0.563930580000000     -1.102778150000000      2.142315000000000
H       1.129721710000000     -2.202462660000000      0.000000000000000
C       6.901394560000000      1.244058480000000      0.000000000000000
C       7.216373780000000      0.622134660000000     -1.206205000000000
C       7.216373780000000      0.622134660000000      1.206205000000000
C       7.845259620000000     -0.621699240000000     -1.206954000000000
C       8.158015069999999     -1.244929310000000      0.000000000000000
C       7.845259620000000     -0.621699240000000      1.206954000000000
H       6.400724360000000      2.202462660000000      0.000000000000000
H       6.966515500000000      1.102778150000000      2.142315000000000
H       8.089834890000001     -1.104085750000000      2.143798000000000
H       8.647340190000000     -2.209685920000000      0.000000000000000
H       8.089834890000001     -1.104085750000000     -2.143798000000000
H       6.966515500000000      1.102778150000000     -2.142315000000000
