8

N      -0.535020550000000     -0.861570010000000      0.000000000000000
H      -1.142058700000000     -0.825740730000000     -0.809565000000000
H      -1.142058700000000     -0.825740730000000      0.809565000000000
H       0.000000000000000      0.000000000000000      0.000000000000000
N       3.004828360000000      0.000000000000000      0.000000000000000
H       3.611866510000000     -0.035829270000000     -0.809565000000000
H       2.469807810000000     -0.861570010000000      0.000000000000000
H       3.611866510000000     -0.035829270000000      0.809565000000000
