12

N      -2.011359000000000      1.213207000000000     -0.098067000000000
C      -2.025708000000000      0.697180000000000     -1.364403000000000
H      -2.297521000000000      1.391059000000000     -2.145646000000000
C      -1.714523000000000     -0.591965000000000     -1.612489000000000
H      -1.727287000000000     -0.990847000000000     -2.612005000000000
C      -1.308960000000000     -1.457534000000000     -0.520589000000000
O      -0.920593000000000     -2.611086000000000     -0.626046000000000
N      -1.376888000000000     -0.839745000000000      0.734636000000000
H      -1.051804000000000     -1.386223000000000      1.523371000000000
C      -1.645991000000000      0.485211000000000      1.018727000000000
O      -1.561109000000000      0.971806000000000      2.129806000000000
H      -2.129463000000000      2.201505000000000      0.056813000000000
