20

C       0.393433890610829      1.057872218636951     -0.696361774037320
C       0.393433606763641      1.057871448794505      0.696362039726675
N       0.001263182866960     -0.000201555540844      1.405532404115999
C      -0.390875783631707     -1.058289705961784      0.696361989843909
C      -0.390875485364672     -1.058288838014442     -0.696362212318585
N       0.001262759429024     -0.000202655406241     -1.405532466857341
H       0.718347319037159      1.934837709369547     -1.254001864131455
H       0.718347374220393      1.934837946501487      1.254001884383429
H      -0.715794941391359     -1.935248547078372      1.254007162405127
H      -0.715795023524368     -1.935248741979823     -1.254007193510737
C       7.225382851517606      0.643401160856618      1.128415470595007
C       6.688077607340523     -0.641495651922956      1.128413535389891
N       6.414474818938296     -1.295772096138338      0.000001285233052
C       6.688077642116076     -0.641495322569274     -1.128415585673251
C       7.225383202388451      0.643401626452353     -1.128413576207950
N       7.498991035460141      1.297668779075985     -0.000001288696008
H       7.440500564621192      1.157901003724120      2.063627376603352
H       6.472958797190541     -1.155965568384216      2.063640867263913
H       6.472958896110367     -1.155965347694497     -2.063640424934003
H       7.440500617290866      1.157901247981530     -2.063627751715851
