28

C      -0.182426892450432     -0.075529822860473      0.010071053655266
C      -0.369775302435204     -1.174412799858096      0.843533866275535
C      -0.367528080870986     -2.460701321136242      0.308721331865752
C      -0.171857971156217     -2.646882922184207     -1.055941316399470
C       0.014513514335142     -1.547988279133852     -1.888602827510350
C      -0.001255189571276     -0.261763567106291     -1.355905543895973
H      -0.174010060063707      0.930554710030777      0.428794948165542
H      -0.512339063936335     -1.034545873268535      1.913882169872480
H      -0.515067977389919     -3.321815348417005      0.958465391431906
H      -0.165593537965507     -3.652471422955302     -1.471818581851613
H       0.167528002406202     -1.694713522143763     -2.956877864892958
H       0.140305662241508      0.594638558266851     -2.011833832103430
H       2.573435638910166     -0.747570182783499      3.336732513916783
C       2.756240896582834     -0.655607417281155      2.268050478673144
C       2.772162127154205      0.598991581261128      1.684301202159974
H       2.598663349862962      1.490860736305199      2.282267593344554
C       3.004345114633974      0.705215302462281      0.301035567968906
C       3.078013330621995      1.804378211708312     -0.632523269289119
H       2.948052592560265      2.855521345475351     -0.407943289005732
C       3.331838015522794      1.267449752698702     -1.863497579479170
N       3.422248693058063     -0.102360855870284     -1.757633784154183
C       3.216342382386070     -0.470121415839581     -0.445546730643732
C       3.198621311955135     -1.741385621777550      0.138995951786917
H       3.364234905320061     -2.632520425826448     -0.461851453251528
C       2.969217881232824     -1.816348911170342      1.501597496082542
H       2.947463510410361     -2.789483008426238      1.989343226667952
H       3.532296177616604     -0.745205283953099     -2.525599631091021
H       3.449270067497503      1.753069495585861     -2.823353038187260
