28

C       0.000000000000000      0.000000000000000      0.000000000000000
C      -0.044485650000000     -1.177978630000000      0.743160100000000
C      -0.010824640000000     -2.411208520000000      0.095333140000000
C       0.064150770000000     -2.466933790000000     -1.295623600000000
C       0.100950900000000     -1.287437050000000     -2.038959970000000
C       0.067356800000000     -0.053500210000000     -1.391376260000000
H      -0.013797740000000      0.956881590000000      0.503348330000000
H      -0.091346970000000     -1.134458000000000      1.822398920000000
H      -0.039754010000000     -3.325680270000000      0.672358670000000
H       0.085389530000000     -3.424849020000000     -1.798373820000000
H       0.146442780000000     -1.330172540000000     -3.119514770000000
H       0.100852830000000      0.862456240000000     -1.964945570000000
H       2.392568520000000     -0.578056850000000      3.494904750000000
C       2.468310890000000     -0.571969870000000      2.415753960000000
C       2.427856830000000      0.633650130000000      1.734349560000000
H       2.320738350000000      1.567038530000000      2.272036100000000
C       2.530607340000000      0.624347560000000      0.333339660000000
C       2.520440040000000      1.633662030000000     -0.673499280000000
H       2.436816110000000      2.698030590000000     -0.533251750000000
C       2.651027100000000      0.992808150000000     -1.884517470000000
N       2.756732730000000     -0.360086600000000     -1.675422890000000
C       2.672552820000000     -0.624347560000000     -0.333339660000000
C       2.721090620000000     -1.839842990000000      0.351754940000000
H       2.827909440000000     -2.780217940000000     -0.172940230000000
C       2.616319360000000     -1.796211680000000      1.733036170000000
H       2.647950930000000     -2.718261440000000      2.297634930000000
H       2.778678800000000     -1.056446210000000     -2.398978770000000
H       2.687244120000000      1.398036280000000     -2.881807740000000
