25

O      -0.969652620000000     -2.245611160000000     -0.386822520000000
N      -1.037789790000000      0.004508750000000     -0.001131130000000
C      -3.759261300000000      0.014028070000000     -0.018375760000000
C      -3.057727060000000      1.221631160000000      0.204402100000000
C      -1.692392880000000      1.172000700000000      0.205277860000000
C      -1.650068010000000     -1.222514750000000     -0.217981660000000
C      -3.088264390000000     -1.161828230000000     -0.221825970000000
H      -4.841300760000000      0.016708500000000     -0.026892050000000
H      -3.567221820000000      2.156831080000000      0.369386690000000
H      -1.068064570000000      2.038779450000000      0.367771500000000
H      -3.612088500000000     -2.090701000000000     -0.390563870000000
H       0.000000000000000      0.000000000000000      0.000000000000000
N       2.231324510000000      0.000000000000000      0.000000000000000
C       2.909924560000000     -1.145324210000000      0.192591910000000
C       4.318290400000000     -1.168677470000000      0.196637010000000
C       5.017404130000000      0.005477080000000     -0.001723240000000
C       4.313014110000000      1.194447660000000     -0.202961470000000
C       2.930725170000000      1.130328030000000     -0.192845810000000
H       4.837105260000000     -2.103975230000000      0.356345740000000
H       6.098832890000000     -0.003103370000000     -0.001911240000000
H       4.817596300000000      2.134632050000000     -0.364687800000000
H       2.339946090000000      2.025258420000000     -0.349790900000000
N       2.178047330000000     -2.272201550000000      0.435153550000000
H       2.659450050000000     -3.145888170000000      0.315408860000000
H       1.202352070000000     -2.270442070000000      0.133172070000000
