26
phenol dimer Dimer
C   -2.00710600    0.76384600   -0.10835100
O   -1.38850400    1.92985200   -0.44312100
H   -0.52381200    1.96465200   -0.00646100
C   -1.46308100   -0.15191200    0.79499300
C   -2.14757900   -1.32950900    1.08836800
C   -3.37432100   -1.60314300    0.48958600
C   -3.91437300   -0.68385500   -0.40910300
C   -3.23705000    0.49296100   -0.70961300
H   -0.51065100    0.05665700    1.26425600
H   -1.71511300   -2.03214500    1.78784200
H   -3.90246600   -2.51738700    0.71979500
H   -4.86707300   -0.88229400   -0.88113200
H   -3.64316600    1.21343400   -1.40575900
O    1.35311700    1.93827200    0.47231300
C    2.03697500    0.78650400    0.14954900
H    1.78428500    2.34874900    1.22971100
C    1.59040300    0.06968600   -0.95741500
C    2.24173700   -1.10697700   -1.31281100
C    3.33156700   -1.56656000   -0.57486400
C    3.76968400   -0.83969000    0.52864400
C    3.12248400    0.33835000    0.89604900
H    0.74455100    0.43679800   -1.52185800
H    1.89214600   -1.66497300   -2.17018400
H    3.83302300   -2.48115400   -0.85666700
H    4.61376300   -1.18501000    1.10926300
H    3.45988500    0.90303800    1.75694900
