25
2-pyridoxine ... 2-aminopyridine Dimer
O   -0.96965262   -2.24561116   -0.38682252
N   -1.03778979    0.00450875   -0.00113113
C   -3.75926130    0.01402807   -0.01837576
C   -3.05772706    1.22163116    0.20440210
C   -1.69239288    1.17200070    0.20527786
C   -1.65006801   -1.22251475   -0.21798166
C   -3.08826439   -1.16182823   -0.22182597
H   -4.84130076    0.01670850   -0.02689205
H   -3.56722182    2.15683108    0.36938669
H   -1.06806457    2.03877945    0.36777150
H   -3.61208850   -2.09070100   -0.39056387
H    0.00000000    0.00000000    0.00000000
N    2.78915564    0.00000000    0.00000000
C    3.46775569   -1.14532421    0.19259191
C    4.87612153   -1.16867747    0.19663701
C    5.57523526    0.00547708   -0.00172324
C    4.87084524    1.19444766   -0.20296147
C    3.48855630    1.13032803   -0.19284581
H    5.39493639   -2.10397523    0.35634574
H    6.65666402   -0.00310337   -0.00191124
H    5.37542742    2.13463205   -0.36468780
H    2.89777721    2.02525842   -0.34979090
N    2.73587845   -2.27220155    0.43515355
H    3.21728118   -3.14588817    0.31540886
H    1.76018320   -2.27044207    0.13317207
