10

C      -1.434944260000000     -1.236643950000000      0.000000000000000
O      -0.995009530000000      0.001876690000000      0.000000000000000
O      -0.752030700000000     -2.248465540000000      0.000000000000000
H      -2.527660580000000     -1.276950580000000      0.000000000000000
H       0.000000000000000      0.000000000000000      0.000000000000000
C       2.687302780000000     -1.011821590000000      0.000000000000000
O       2.247368050000000     -2.250342240000000      0.000000000000000
O       2.004389210000000      0.000000000000000      0.000000000000000
H       3.780019100000000     -0.971514960000000      0.000000000000000
H       1.252358520000000     -2.248465540000000      0.000000000000000
