12

C      -0.002453767170166     -0.469516844904689      0.469516851777789
C      -0.002453750170005      0.469516779227691     -0.469516694618202
H       0.922187635501554     -0.879052057209967      0.879052080418339
H       0.922187319570612      0.879052191010185     -0.879052146863553
H      -0.932198928397719     -0.868800832114515      0.868800853769205
H      -0.932198882416204      0.868800919837436     -0.868800935333450
C       3.348853722341107      0.469516415141753      0.469516492857080
C       3.348853376824157     -0.469516322113478     -0.469516383151703
H       2.424212062644318      0.879052117617449      0.879052119560755
H       2.424212644473935     -0.879052156382677     -0.879052042823532
H       4.278598670524360      0.868800725776025      0.868800732397472
H       4.278598788523603     -0.868800935588897     -0.868800920711794
