24

C       0.633185619166034     -1.240194869780500     -0.000000138195134
C       0.317564580038675     -0.619658409733550      1.205897160294952
C       0.317564608072446     -0.619658439898494     -1.205896881648599
C      -0.313462804975575      0.621584832491722      1.205905775376685
C      -0.628968269166522      1.242198300910704      0.000000231059403
C      -0.313462802548165      0.621584994813961     -1.205906326455549
H       0.563909656355327     -1.104520837696603     -2.147693801047308
H      -0.559936207021535      1.106256720855085     -2.147769870476885
H      -1.121817724433915      2.211654702493196      0.000000081026073
H      -0.559936200779792      1.106256649959234      2.147770002496391
H       0.563909652872063     -1.104520816522539      2.147693753416137
H       1.125833649963209     -2.209751273711413      0.000000026917481
C       5.014648832789098      1.240194820022148     -0.000000111266820
C       5.330269865472673      0.619658730059775     -1.205897059901546
C       5.330269787019689      0.619658499370758      1.205897463206556
C       5.961297695054762     -0.621585227292835     -1.205906233333433
C       6.276802685499488     -1.242197839329029      0.000000337367917
C       5.961297406095369     -0.621585074553865      1.205905712060966
H       4.522000851751923      2.209751438773273     -0.000000066709980
H       5.083924948064601      1.104520807426171      2.147693782449170
H       6.207770855361979     -1.106256740793824      2.147769807692675
H       6.769652323335397     -2.211654847658369     -0.000000048318728
H       6.207770643098173     -1.106256606071525     -2.147769840055658
H       5.083924958638834      1.104520754300872     -2.147693769499238
