12

C      -1.392449848882378      0.000000672075084     -2.453458545535440
C      -0.696221114566286      1.205873089786057     -2.453487154075586
C       0.696220980819671      1.205874185133070     -2.453487153793296
C       1.392449707453757     -0.000000581665093     -2.453458545536899
C       0.696221288374835     -1.205873293097806     -2.453487154256162
C      -0.696221013723890     -1.205874115280096     -2.453487154130927
H      -2.480021098543214      0.000000027789587     -2.453474406793262
H      -1.240040803779225      2.147705098887153     -2.453587370036288
H       1.240040684422499      2.147704874385836     -2.453587369572219
H       2.480021090006448      0.000000046013948     -2.453474407279888
H       1.240040726897936     -2.147705100948141     -2.453587369524438
H      -1.240040630142655     -2.147704782266140     -2.453587369790673
