10

C      -1.245985728970992     -1.174251926420075     -0.696359361133635
C      -1.245979423772146     -1.174255343399936      0.696361131111260
N      -0.257861360590481     -1.719176433433051      1.405515148427284
C       0.730284958643512     -2.264069336103685      0.696356425279775
C       0.730279760633955     -2.264066509117810     -0.696358147736720
N      -0.257853537204442     -1.719180738822619     -1.405515433756471
H      -2.064979809483226     -0.722712441122398     -1.254012708160007
H      -2.064980838820974     -0.722711884327696      1.254013297172309
H       1.549294619177083     -2.715555451647970      1.254014606653360
H       1.549295368530622     -2.715555883581620     -1.254014991549266
