15

C       0.075559029732619      1.310227236175711     -1.206541690085155
C      -0.166379777508213     -0.062599082144628     -1.206432015359569
C      -0.287105517925109     -0.749130647645886     -0.000000002838014
C      -0.166378271546897     -0.062598553711445      1.206430902792227
C       0.075560285604429      1.310225762107684      1.206540267722801
C       0.198897581451039      1.997026373062692      0.000000192579606
H       0.174102684197892      1.841990004841161     -2.149038970509269
H      -0.252256595026822     -0.598289364175016     -2.148191907409389
H      -0.467708561009014     -1.821676764726958     -0.000000433513797
H      -0.252254980568157     -0.598290222233441      2.148191845243726
H       0.174105259014374      1.841989478256157      2.149039046915178
H       0.409881241687210      3.064370130793890     -0.000000329310488
O       3.064680429078571      0.531248946230987      0.000000266083658
H       2.813633640491433      1.463217884982652     -0.000000063232736
H       2.205740869047081      0.087703622107982      0.000000583119977
