12

C       0.000000000000000     -0.471925000000000      0.471925000000000
C       0.000000000000000      0.471925000000000     -0.471925000000000
H       0.922986000000000     -0.872422000000000      0.872422000000000
H       0.922986000000000      0.872422000000000     -0.872422000000000
H      -0.924197000000000     -0.870464000000000      0.870464000000000
H      -0.924197000000000      0.870464000000000     -0.870464000000000
C       7.436444000000000      0.471925000000000      0.471925000000000
C       7.436444000000000     -0.471925000000000     -0.471925000000000
H       6.513458000000000      0.872422000000000      0.872422000000000
H       6.513458000000000     -0.872422000000000     -0.872422000000000
H       8.360640999999999      0.870464000000000      0.870464000000000
H       8.360640999999999     -0.870464000000000     -0.870464000000000
