15

C      -0.085103483861472      1.438797414290951     -1.205935981737413
C      -0.056731563017570      0.045469311734432     -1.205975556275868
C      -0.043329775481694     -0.653416976707959      0.000002573259089
C      -0.056734863744020      0.045471644359560      1.205976681210014
C      -0.085107850072173      1.438795041967454      1.205936119712145
C      -0.099681420606065      2.136314102266732      0.000001907414951
H      -0.095994625560420      1.977447193080329     -2.150176476796989
H      -0.036039043318771     -0.499336208524672     -2.147019249085485
H      -0.002868647417877     -1.740888296504844      0.000001295002731
H      -0.036043203785229     -0.499337072329674      2.147023567244818
H      -0.096004938452298      1.977447878779223      2.150179109258719
H      -0.124723444921654      3.223227975968450      0.000000143468523
O       3.268798262214986     -0.113834752673593     -0.000008475655022
H       3.581797633416933      0.798593911230162      0.000001010130867
H       2.308216703889304     -0.019334761449830     -0.000003957061450
