28

C       0.411483003312943      0.014434118286775      0.084316801365771
C       0.204040830965490     -1.075639744269813      0.924576689627950
C       0.121924010023363     -2.359467507097266      0.390130697548187
C       0.253506779303000     -2.552334171563931     -0.981272937483558
C       0.460120807495171     -1.462222092989370     -1.820675060776705
C       0.528651282690010     -0.177791805260288     -1.287811848814576
H       0.485887945866713      1.018052487008406      0.502468705229985
H       0.111347363466555     -0.931129907799112      1.999783557561751
H      -0.041508277452984     -3.213581527790430      1.045306495861066
H       0.193921961939959     -3.556200865626944     -1.397112865438135
H       0.562963679398924     -1.614141465596517     -2.894211551740418
H       0.685729844673926      0.671887244390158     -1.948931663548181
H       3.261701839797517     -0.797659906978056      3.298250706123624
C       3.406017257551366     -0.712669757635666      2.223133703787020
C       3.459950129893022      0.540775642005038      1.639185100881340
H       3.354233528624854      1.438903959347262      2.243581031980655
C       3.641660666656403      0.638152720479836      0.247744873362475
C       3.731670065596356      1.734175079360607     -0.688076041798092
H       3.662198589859911      2.789995174130486     -0.458577493173086
C       3.909559920530228      1.187812591291036     -1.928193188005916
N       3.936998123377095     -0.184992513982451     -1.825935252744901
C       3.765955143213934     -0.544725379060020     -0.506643512097643
C       3.709472300888021     -1.814720764322821      0.078184090723492
H       3.807188813458781     -2.711729053240167     -0.528768273949715
C       3.531258270415104     -1.880974074668770      1.448858272957713
H       3.481466341849690     -2.852823279568197      1.937095714444041
H       3.984798387142356     -0.831091312793587     -2.597559663051434
H       4.012219313344637      1.668962383208674     -2.891998222785316
