10

C      -0.049360959888878      0.000093824094428     -0.000000015170318
H       0.316512727022647      0.515006646157087     -0.891983215260750
H       0.316512690636475      0.514872322268609      0.892060752984367
H       0.316333408433841     -1.029903793711364     -0.000077520602719
H      -1.141931958393432      0.000371012806792      0.000000005729817
C       3.395850630752250     -0.000093900441786     -0.000000018073257
H       4.488421780535786     -0.000371098627863     -0.000000077225440
H       3.029977195010568     -0.514872251654717     -0.892060767850173
H       3.029977103896073     -0.515006573621027      0.891983153457962
H       3.030156362164238      1.029903774242472      0.000077582078736
