12

N      -1.971988117628959      1.224586109063484     -0.103096835481659
C      -2.006715294387083      0.700300102197421     -1.372427938698729
H      -2.302259571974515      1.394884130210751     -2.152760125125269
C      -1.695670784602827     -0.581596216148447     -1.621596436640568
H      -1.722431713098280     -0.996114603100765     -2.620635809089571
C      -1.306027286154789     -1.459646906506812     -0.519016440845595
O      -1.003014715766219     -2.631088981008511     -0.611518781169449
N      -1.304343152557691     -0.822202603936671      0.732378535337394
H      -1.040117485046716     -1.394507759853825      1.524527591583895
C      -1.618325010446792      0.490642067720605      1.020715310439276
O      -1.592644107445714      0.967972022377995      2.134455490963902
H      -2.207668786120408      2.189340713108083      0.073083622683297
