30
adenine ... thymine (WC) Dimer
N    0.93501500   -0.02798000   -0.37889200
C    1.67396400   -0.03577700    0.74243200
C    3.07479600   -0.00944800    0.59945600
C    3.56461100    0.01954500   -0.70598700
N    2.85315100    0.02580300   -1.84096000
C    1.54907600    0.00125700   -1.58080100
N    4.08858200   -0.00544300    1.52897900
C    5.18299200    0.02539700    0.78721800
N    4.92948700    0.04124000   -0.55672700
N    1.07161800   -0.07653700    1.93913900
H    0.87944400    0.00502600   -2.43157100
H    6.18825900    0.03755400    1.17388200
H    5.60353700    0.06487600   -1.30368100
H    0.05869200   -0.04237600    2.00391800
H    1.64438000   -0.03473900    2.76191600
N   -3.92117300   -0.00096500   -1.51636600
C   -4.61368300    0.01690500   -0.33365200
C   -3.99173900    0.02193500    0.86633400
C   -2.53613700    0.00746500    0.87667200
N   -1.92564800   -0.01105900   -0.36389500
C   -2.53959000   -0.01494700   -1.59623600
C   -4.71061300    0.04133700    2.17386400
O   -1.86747300    0.01120900    1.91208300
O   -1.94167800   -0.02918800   -2.65737800
H   -4.40171700   -0.00360800   -2.40049200
H   -0.88382600   -0.02161700   -0.37842700
H   -5.69092200    0.02693500   -0.42271800
H   -4.44392800   -0.83025700    2.76956600
H   -4.42670600    0.91861800    2.75302600
H   -5.78839700    0.05055300    2.02472800
