12

C      -0.873982177653631     -1.101779215845561     -0.000000000000000
O      -0.326992390211931     -0.007472331687726     -0.000000000000000
N      -0.258462125594336     -2.295393702272472      0.000000000000000
H      -0.805394843219389     -3.141192374208618     -0.000000000000000
H       0.765390143027613     -2.364274375143811     -0.000000000000000
H      -1.976272951204770     -1.180521959801694     -0.000000000000000
C       3.144730571780506     -1.285319336731038      0.000000000000000
O       2.597739300287188     -2.379634187170708     -0.000000000000000
N       2.529224656096202     -0.091707166394232      0.000000000000000
H       3.076140118209317      0.754083692719698      0.000000000000000
H       1.505354423080489     -0.022830213965194     -0.000000000000000
H       4.247025449508883     -1.206581469423476      0.000000000000000
