28

C      -0.052652080000000     -1.393225780000000      0.000000000000000
C      -0.025543350000000     -0.696940100000000     -1.208292000000000
C       0.026348250000000      0.696724230000000     -1.208365000000000
C       0.051042260000000      1.393657540000000      0.000000000000000
C       0.026348250000000      0.696724230000000      1.208365000000000
C      -0.025543350000000     -0.696940100000000      1.208292000000000
H      -0.097430660000000     -2.473655970000000      0.000000000000000
H      -0.040509760000000     -1.237360070000000     -2.144590000000000
H       0.050955580000000      1.236531290000000     -2.144838000000000
H       0.089657640000000      2.474412420000000      0.000000000000000
H       0.050955580000000      1.236531290000000      2.144838000000000
H      -0.040509760000000     -1.237360070000000      2.144590000000000
H       2.677063230000000      0.000000000000000      0.000000000000000
N       3.684380640000000      0.005056390000000      0.000000000000000
C       4.466034820000000      1.132604940000000      0.000000000000000
C       5.794919550000000      0.772354620000000      0.000000000000000
C       5.836313030000000     -0.653193160000000      0.000000000000000
C       4.486468400000000     -1.104920880000000      0.000000000000000
C       4.151808730000000     -2.462094970000000      0.000000000000000
C       5.194001030000000     -3.376178890000000      0.000000000000000
C       6.538324470000000     -2.951641290000000      0.000000000000000
C       6.868664350000000     -1.606705570000000      0.000000000000000
H       4.012340600000000      2.109594760000000      0.000000000000000
H       6.630309350000000      1.451489920000000      0.000000000000000
H       3.119419790000000     -2.785730810000000      0.000000000000000
H       4.972283590000000     -4.434822780000000      0.000000000000000
H       7.324389390000000     -3.694570140000000      0.000000000000000
H       7.904990130000000     -1.294593880000000      0.000000000000000
