15
benzene ... HCN Dimer
C   -0.02310095    0.69697859    1.20770200
C   -0.04616033    1.39380803    0.00000000
C   -0.02310095    0.69697859   -1.20770200
C    0.02308582   -0.69689511   -1.20786500
C    0.04619059   -1.39397501    0.00000000
C    0.02308582   -0.69689511    1.20786500
H   -0.03862462    1.23736918    2.14405100
H   -0.07914868    2.47449307    0.00000000
H   -0.03862462    1.23736918   -2.14405100
H    0.04283969   -1.23714251   -2.14425600
H    0.08340142   -2.47459358    0.00000000
H    0.04283969   -1.23714251    2.14425600
N    4.07540572    0.30453686    0.00000000
C    2.91891497    0.14576395    0.00000000
H    1.86103168    0.00000000    0.00000000
