10

C      -1.895706403216586     -0.152255151347307     -0.000000000000000
O      -1.567040644563014      1.118407017935513     -0.000000000000000
O      -1.150101181635274     -1.110780241098404     -0.000000000000000
H      -2.988336968831529     -0.273376961031014     -0.000000000000000
H      -0.577764041773478      1.197449056700241     -0.000000000000000
C       1.895712006668427      0.152259135421774      0.000000000000000
O       1.567036625006414     -1.118411446383492      0.000000000000000
O       1.150098522183736      1.110780084341889     -0.000000000000000
H       2.988334306318161      0.273378390209653      0.000000000000000
H       0.577767703114751     -1.197449859102536      0.000000000000000
