10

C      -0.212982798101385     -0.664173823656699      0.000000033311482
C      -0.212982723619417      0.664174101157332     -0.000000122655025
H      -0.221843678253261     -1.234351211791097     -0.927826820741611
H      -0.221843696490826     -1.234350675339270      0.927827198449751
H      -0.221843715782642      1.234351240542815      0.927826804310418
H      -0.221843499684689      1.234351201513333     -0.927827269462044
C       5.073556025321791      0.000000015860367     -0.000000004609320
C       3.871788347924905      0.000000017069555     -0.000000020703667
H       2.803348072357236     -0.000000000034965     -0.000000031619952
H       6.141399347663119      0.000000002101589      0.000000012448463
