28
indole ... benzene (T-shape) Dimer
C   -0.05265208   -1.39322578    0.00000000
C   -0.02554335   -0.69694010   -1.20829200
C    0.02634825    0.69672423   -1.20836500
C    0.05104226    1.39365754    0.00000000
C    0.02634825    0.69672423    1.20836500
C   -0.02554335   -0.69694010    1.20829200
H   -0.09743066   -2.47365597    0.00000000
H   -0.04050976   -1.23736007   -2.14459000
H    0.05095558    1.23653129   -2.14483800
H    0.08965764    2.47441242    0.00000000
H    0.05095558    1.23653129    2.14483800
H   -0.04050976   -1.23736007    2.14459000
H    3.34632904    0.00000000    0.00000000
N    4.35364644    0.00505639    0.00000000
C    5.13530063    1.13260494    0.00000000
C    6.46418535    0.77235462    0.00000000
C    6.50557884   -0.65319316    0.00000000
C    5.15573420   -1.10492088    0.00000000
C    4.82107454   -2.46209497    0.00000000
C    5.86326684   -3.37617889    0.00000000
C    7.20759028   -2.95164129    0.00000000
C    7.53793016   -1.60670557    0.00000000
H    4.68160640    2.10959476    0.00000000
H    7.29957516    1.45148992    0.00000000
H    3.78868559   -2.78573081    0.00000000
H    5.64154940   -4.43482278    0.00000000
H    7.99365520   -3.69457014    0.00000000
H    8.57425594   -1.29459388    0.00000000
