8

N      -0.534368704722662     -0.863813304447695      0.000000000000000
H      -1.141976130356225     -0.824926181252713     -0.813257206569921
H      -1.141976131798141     -0.824926183211809      0.813257207053658
H      -0.000737050560482      0.000614041547223      0.000000000025025
N       5.007395552193324      0.002243286893643      0.000000001318528
H       5.615002805438738     -0.036643803008830     -0.813257157204161
H       4.473763733270276     -0.862184071342740      0.000000000220726
H       5.615002805761923     -0.036643804068856      0.813257154382530
