24

O      -1.461883798092119      1.019918920610984      0.000000000000000
C      -0.628852789574904      1.921161182738019      0.000000000000000
N       0.724360531095425      1.693165225229451      0.000000000000000
C       1.639959074779585      2.715152020742269      0.000000000000000
C       1.283095945028629      4.010607636659285     -0.000000000000000
C      -0.133020877689997      4.367444290989717     -0.000000000000000
N      -0.984938231181416      3.248093569013081      0.000000000000000
O      -0.593383667160593      5.489503773762813     -0.000000000000000
H       2.015380049521780      4.806973092551750     -0.000000000000000
H       1.028659516283289      0.709833011188405      0.000000000000000
H      -1.978959370118868      3.437651029411594      0.000000000000000
H       2.677585570648476      2.396082081609280      0.000000000000000
O       1.461885486971250     -1.019917065132904      0.000000000000000
C       0.628848646358274     -1.921166069378615      0.000000000000000
N      -0.724357351772404     -1.693160312364701      0.000000000000000
C      -1.639964488010492     -2.715152640424863      0.000000000000000
C      -1.283093672834896     -4.010609475254189     -0.000000000000000
C       0.133019357199405     -4.367444342252583     -0.000000000000000
N       0.984940846526635     -3.248092483977333     -0.000000000000000
O       0.593384369693010     -5.489503591802250     -0.000000000000000
H      -2.015379497691257     -4.806971972478744     -0.000000000000000
H      -1.028659647926585     -0.709835394086337      0.000000000000000
H       1.978958377225789     -3.437651115922784     -0.000000000000000
H      -2.677583620451144     -2.396082581468933      0.000000000000000
