25

O      -0.461461029607309     -2.188521507881471     -0.085686778634865
N      -0.586096636660560      0.078047796889854      0.117656113765919
C      -3.310864525725842     -0.007682879793827     -0.122437729798726
C      -2.653112275112492      1.250062803026403      0.044186203071421
C      -1.303098495486417      1.242747050300147      0.156589975368022
C      -1.152489723649027     -1.168835757715430     -0.046805106306192
C      -2.600076621413048     -1.165484583907944     -0.167179456593750
H      -4.393661593393904     -0.035343819815257     -0.215182832121144
H      -3.210910807391010      2.178831488001034      0.078801808752263
H      -0.701560786993203      2.137462553483961      0.282205050959391
H      -3.065095375061113     -2.134531995545295     -0.293274949580723
H       0.439447664080416      0.097944278412739      0.196682503492657
N       2.356327799471606     -0.097568439451205      0.135095851796385
C       3.105447254517055     -1.208160644376840      0.177518831486292
C       4.508037264241844     -1.172094106409833      0.063208469180386
C       5.130442636990652      0.048346071821645     -0.094940785847715
C       4.359026376420760      1.210794095488446     -0.140297091844958
C       2.991559853799632      1.079933804251760     -0.022754544822234
H       5.075912499756700     -2.098443210048348      0.110482412043950
H       6.212922787718732      0.099703184717561     -0.183933634453513
H       4.810275039425170      2.188976036829942     -0.263929939621799
H       2.364108601664669      1.970853898320138     -0.054453562208545
N       2.455656930764113     -2.397729010014381      0.387823711723111
H       2.938807766211720     -3.238335580807763      0.115948114605160
H       1.452447478919369     -2.386625582445932      0.223310346383491
