28
indole ... benzene (T-shape) Dimer
C   -0.05265208   -1.39322578    0.00000000
C   -0.02554335   -0.69694010   -1.20829200
C    0.02634825    0.69672423   -1.20836500
C    0.05104226    1.39365754    0.00000000
C    0.02634825    0.69672423    1.20836500
C   -0.02554335   -0.69694010    1.20829200
H   -0.09743066   -2.47365597    0.00000000
H   -0.04050976   -1.23736007   -2.14459000
H    0.05095558    1.23653129   -2.14483800
H    0.08965764    2.47441242    0.00000000
H    0.05095558    1.23653129    2.14483800
H   -0.04050976   -1.23736007    2.14459000
H    1.78470882    0.00000000    0.00000000
N    2.79202623    0.00505639    0.00000000
C    3.57368041    1.13260494    0.00000000
C    4.90256514    0.77235462    0.00000000
C    4.94395862   -0.65319316    0.00000000
C    3.59411399   -1.10492088    0.00000000
C    3.25945432   -2.46209497    0.00000000
C    4.30164662   -3.37617889    0.00000000
C    5.64597006   -2.95164129    0.00000000
C    5.97630994   -1.60670557    0.00000000
H    3.11998618    2.10959476    0.00000000
H    5.73795494    1.45148992    0.00000000
H    2.22706538   -2.78573081    0.00000000
H    4.07992918   -4.43482278    0.00000000
H    6.43203498   -3.69457014    0.00000000
H    7.01263572   -1.29459388    0.00000000
