10
ethene ... ethyne Dimer
C    0.00000000   -0.66757800    0.00000000
C    0.00000000    0.66757800    0.00000000
H   -0.00152600   -1.23225300   -0.92362100
H   -0.00152600   -1.23225300    0.92362100
H   -0.00152600    1.23225300    0.92362100
H   -0.00152600    1.23225300   -0.92362100
C    4.19955870    0.00000000    0.00000000
C    2.99229570    0.00000000    0.00000000
H    1.92640770    0.00000000    0.00000000
H    5.26298470    0.00000000    0.00000000
