28
indole ... benzene (T-shape) Dimer
C    2.51190000    1.62501500    0.00000000
C    2.71300900    0.95785400   -1.20829200
C    3.11778200   -0.37674400   -1.20836500
C    3.32138500   -1.04373100    0.00000000
C    3.11778200   -0.37674400    1.20836500
C    2.71300900    0.95785400    1.20829200
H    2.20240400    2.66113600    0.00000000
H    2.55117600    1.47369100   -2.14459000
H    3.27030000   -0.89514100   -2.14483800
H    3.63681400   -2.07815200    0.00000000
H    3.27030000   -0.89514100    2.14483800
H    2.55117600    1.47369100    2.14459000
H    0.80652400   -0.43588700    0.00000000
N   -0.14424100   -0.76869300    0.00000000
C   -0.51611200   -2.08932200    0.00000000
C   -1.88987600   -2.18144900    0.00000000
C   -2.39323200   -0.84708300    0.00000000
C   -1.26406500    0.01958900    0.00000000
C   -1.38960000    1.41176700    0.00000000
C   -2.67265000    1.93664500    0.00000000
C   -3.80545100    1.09747900    0.00000000
C   -3.67981700   -0.28172100    0.00000000
H    0.23100200   -2.86531700    0.00000000
H   -2.45857600   -3.09560500    0.00000000
H   -0.51887300    2.05395200    0.00000000
H   -2.80775700    3.00978600    0.00000000
H   -4.79059900    1.54393700    0.00000000
H   -4.55801900   -0.91429200    0.00000000
