10

C      -1.608388272109627     -1.194468911124797     -0.000000000000000
O      -1.225151679097467      0.060826627998538      0.000000000000000
O      -0.904886448900629     -2.184308039997071     -0.000000000000000
H      -2.705208687229481     -1.268304678265048     -0.000000000000000
H      -0.233396788060781      0.097074649176648      0.000000000000000
C       2.192611115891629     -1.053991795896246     -0.000000000000000
O       1.809413577308843     -2.309282435603547      0.000000000000000
O       1.489050855846161     -0.064193760710790     -0.000000000000000
H       3.289451459374718     -0.980138814542669      0.000000000000000
H       0.817648698593181     -2.345540504232376     -0.000000000000000
