15

C      -0.429774187286121      0.393779433071230      1.205790494040366
C      -0.685139519237462      1.041395413708472     -0.000067306542165
C      -0.429316020138486      0.393888381286219     -1.205884796902100
C       0.082073018938689     -0.901174082744476     -1.205841504332176
C       0.337365646475259     -1.548797544059447      0.000016711680843
C       0.081396645824047     -0.901364909712184      1.205839626252960
H      -0.624090831843557      0.901541692474589      2.147359158930020
H      -1.079022698450944      2.054788338483684     -0.000152855467012
H      -0.623381027879275      0.901740108282533     -2.147457999658155
H       0.287479783288743     -1.404608603638506     -2.147375060186802
H       0.741855103760217     -2.558018742906275      0.000025443494649
H       0.285883642349743     -1.405043571726499      2.147440679914294
N       4.456920635440875      1.574699508030990      0.000232180273862
C       3.383068744774829      1.150875124559860      0.000125188606328
H       2.384799660661984      0.756917562076998      0.000022189510398
