30
adenine ... thymine (stack) Dimer
N    0.27930100    2.40683900   -0.60575200
C   -1.08485700    2.44574600   -0.55116100
H   -1.65944000    3.02302900   -1.25609000
N   -1.59771200    1.71798800    0.42875400
C   -0.48972500    1.17143600    1.03019100
C   -0.34613700    0.29147100    2.11723400
N   -1.41870900   -0.16777700    2.81014400
H   -1.23887500   -0.95948000    3.40475800
H   -2.29187300   -0.17882200    2.30736200
N    0.88576300   -0.07007600    2.49194900
C    1.93523500    0.40728800    1.79680200
H    2.90603300    0.07884100    2.14581800
N    1.94097800    1.22420200    0.74022000
C    0.69521900    1.57798600    0.40639800
H    0.86100700    2.82980400   -1.31045000
N    1.27546100   -0.64789900   -1.97791000
C    1.41305300   -1.55368500   -0.95506700
H    2.42587700   -1.86707800   -0.74687800
C    0.35759800   -2.02395000   -0.25305700
C    0.48212900   -3.01794900    0.85212200
H    0.17577000   -2.57560700    1.79862800
H   -0.16016900   -3.87704100    0.66395000
H    1.51124400   -3.35727700    0.95136600
C   -0.96847100   -1.52981100   -0.59397900
O   -2.00292800   -1.83969600   -0.01994500
N   -0.99569200   -0.63838700   -1.67204200
H   -1.90140600   -0.25017200   -1.89857600
C    0.06847000   -0.11917600   -2.37637600
O   -0.03978800    0.72270100   -3.25310800
H    2.08532900   -0.27601800   -2.44545800
