24

N      -0.277905010000000      1.293679540000000      0.176141970000000
C      -0.313143400000000      0.778657200000000     -1.090194030000000
H      -0.556628450000000      1.482976300000000     -1.871437030000000
C      -0.054429330000000     -0.522034140000000     -1.338280030000000
H      -0.083339180000000     -0.920071820000000     -2.337796030000000
C       0.315741830000000     -1.403319770000000     -0.246380030000000
O       0.657066630000000     -2.571655560000000     -0.351837030000000
N       0.272892520000000     -0.783286380000000      1.008844970000000
H       0.575575190000000     -1.342483140000000      1.797579970000000
C       0.057676400000000      0.551482080000000      1.292935970000000
O       0.162197800000000      1.034239710000000      2.404014970000000
H      -0.355882040000000      2.285950210000000      0.331021970000000
N       5.325895980000000     -1.293679540000000      0.176141970000000
C       5.361134380000000     -0.778657200000000     -1.090194030000000
H       5.604619430000000     -1.482976300000000     -1.871437030000000
C       5.102420300000000      0.522034140000000     -1.338280030000000
H       5.131330150000000      0.920071820000000     -2.337796030000000
C       4.732249140000000      1.403319770000000     -0.246380030000000
O       4.390924340000000      2.571655560000000     -0.351837030000000
N       4.775098460000000      0.783286380000000      1.008844970000000
H       4.472415790000000      1.342483140000000      1.797579970000000
C       4.990314580000000     -0.551482080000000      1.292935970000000
O       4.885793180000000     -1.034239710000000      2.404014970000000
H       5.403873020000000     -2.285950210000000      0.331021970000000
