17

C      -0.308826697658539      0.036325326913829     -1.391929481728917
C      -0.308785292563972     -1.187377102576200     -0.727463514650055
C      -0.308815510097482     -1.223614680620419      0.664515081354552
C      -0.308781784056973     -0.036327002369238      1.392038402000238
C      -0.308838945744919      1.187275264183562      0.727411818757953
C      -0.308777605203628      1.223705865758540     -0.664572073028521
H      -0.307436622855497      0.064716394656780     -2.479181204655811
H      -0.307059277919464     -2.114797246615679     -1.295647232432729
H      -0.307416427881874     -2.179384683902508      1.183592866063970
H      -0.307038199209797     -0.064714672842361      2.479302599411737
H      -0.307457072980674      2.114686568761833      1.295591265264424
H      -0.307018361049905      2.179481881362010     -1.183656662009532
C       3.667004591506125      0.000004644227315     -0.000000364580709
H       4.034345790698630      0.842708221986669     -0.590870377761664
H       4.034338639511509      0.090352548749073      1.025241157395977
H       2.575512510630338      0.000018543218893     -0.000006395387497
H       4.034337876159199     -0.933059782912917     -0.434366386241328
