15

C       0.119287399466854      0.697016391815868      1.205803419025416
C       0.093769608693915      1.392786172593506      0.000000015209556
C       0.119287534273618      0.697015885645339     -1.205804154351218
C       0.170369579754831     -0.694413204729726     -1.205821904304899
C       0.195932970932914     -1.390116425437776     -0.000000972546387
C       0.170369339632517     -0.694413571310348      1.205822437548777
H       0.105170100685551      1.240431743495767      2.147386242127290
H       0.059641616709451      2.479521994489003     -0.000000288110291
H       0.105170363298795      1.240431877916544     -2.147386760442572
H       0.196059500926154     -1.237466014443008     -2.147398896277439
H       0.241577799205364     -2.476392445862941      0.000000017177102
H       0.196059240976848     -1.237465710575625      2.147398124856192
N       5.120086199452543      0.187097764269898     -0.000000035203854
C       3.966447685337449      0.143523199185344      0.000000064779180
H       2.894014862247699      0.103097164392906      0.000000102063622
