6

O      -0.956332650000000     -0.120638360000000      0.000000000000000
H      -1.307535170000000      0.769703270000000      0.000000000000000
H       0.000000000000000      0.000000000000000      0.000000000000000
O       3.903170220000000      0.000000000000000      0.000000000000000
H       4.215134550000000     -0.496847290000000     -0.758561000000000
H       4.215134550000000     -0.496847290000000      0.758561000000000
