12
ethene dimer Dimer
C    0.00000000   -0.47192500    0.47192500
C    0.00000000    0.47192500   -0.47192500
H    0.92298600   -0.87242200    0.87242200
H    0.92298600    0.87242200   -0.87242200
H   -0.92419700   -0.87046400    0.87046400
H   -0.92419700    0.87046400   -0.87046400
C    4.46186640    0.47192500    0.47192500
C    4.46186640   -0.47192500   -0.47192500
H    3.53888040    0.87242200    0.87242200
H    3.53888040   -0.87242200   -0.87242200
H    5.38606340    0.87046400    0.87046400
H    5.38606340   -0.87046400   -0.87046400
