5

C       0.000000043582542     -0.000053828671747      1.858334189082404
H      -0.891999485468115      0.514907194703783      1.494115466955561
H       0.891999454994947      0.514907192133211      1.494115494180020
H      -0.000000016609543     -1.030095277067728      1.494303405016072
H       0.000000004826817      0.000064718632100      2.950814446819082
