24

C      -0.136577158139731     -1.609162145596593      0.000001518585048
C      -0.314546334126437     -0.936897237392033      1.205327398587921
C      -0.314551888429624     -0.936899035488417     -1.205328421509072
C      -0.671348512791683      0.408487448216100      1.205194070076296
C      -0.850278494488092      1.080620980417895     -0.000000695995846
C      -0.671354994031813      0.408485662088438     -1.205192536749711
H      -0.173325627273707     -1.462659901286860     -2.147937188913318
H      -0.807393065381776      0.934961844537843     -2.148117877368950
H      -1.126991315491724      2.133435718967322      0.000000719966409
H      -0.807384105293755      0.934963497983666      2.148118194014545
H      -0.173311459176059     -1.462657098276914      2.147937264188466
H       0.141584788332099     -2.661438643280114     -0.000000184047735
C       2.772223733804736      1.609160858841366     -0.000000639955258
C       2.950213059614966      0.936899884945081     -1.205328383452861
C       2.950213593425867      0.936901689888321      1.205328326909887
C       3.307001056233901     -0.408488838037023     -1.205192293518889
C       3.485944287271160     -1.080617285156887      0.000001751209975
C       3.307001501508903     -0.408486807096565      1.205193965754209
H       2.494066707145917      2.661438233302645     -0.000001479307425
H       2.808971637639631      1.462660324828123      2.147936594917453
H       3.443047876366015     -0.934959969444492      2.148119695970572
H       3.762644319994269     -2.133436087945836      0.000002313336670
H       3.443047742250002     -0.934963313217931     -2.148116771260283
H       2.808970438855642      1.462656492885803     -2.147937637207173
