12

O      -1.390567855361672     -1.869498379006212     -0.373908866618280
N      -1.456448434229789      0.367228843509255      0.023439055239268
C      -4.180381386407745      0.360574078024260      0.036373838508042
C      -3.472535765437405      1.584233561171596      0.250153570418768
C      -2.117295781413946      1.543786583788508      0.235730961426968
C      -2.071244056400202     -0.872217948223232     -0.193411612950801
C      -3.524797107817323     -0.810425154817643     -0.175057752080784
H      -5.268199943557907      0.371055339593749      0.043719844151246
H      -3.999890080770089      2.516011232860501      0.418660151410878
H      -1.487298120963289      2.414652311072734      0.386693992471927
H      -4.048393832404581     -1.745408258212905     -0.338539203237628
H      -0.444166710457495      0.336369950240796      0.012890987717060
