10

C      -0.433118836658447     -0.664166160090131     -0.000000008051995
C      -0.433118765538988      0.664166146027307     -0.000000086490438
H      -0.441993405459078     -1.234353736215845     -0.927809833701494
H      -0.441993298408318     -1.234353819133009      0.927809796994886
H      -0.441993198863050      1.234353772331890      0.927809836348564
H      -0.441993259175374      1.234353657567355     -0.927809744604220
C       4.853374501249192     -0.000000001001293      0.000000001774324
C       3.651603372102632      0.000000021419416     -0.000000009267608
H       2.583157741732336      0.000000025165732     -0.000000019797382
H       5.921217676227185     -0.000000011098903      0.000000006827807
