24

O      -0.200059691069302      0.025707753092885     -0.000000000000000
C      -0.850141035104611      1.066660985641161      0.000000000000000
N      -0.273740820146472      2.311996311107381      0.000000000000000
C      -1.018386020275907      3.464507034277507      0.000000000000000
C      -2.362103822598780      3.461449877706900     -0.000000000000000
C      -3.079396985392022      2.189355707909853      0.000000000000000
N      -2.224003605049094      1.072640802425075      0.000000000000000
O      -4.283099508478529      2.040846114426514     -0.000000000000000
H      -2.937582109418436      4.377553055610195     -0.000000000000000
H       0.755011909707620      2.346383165766416      0.000000000000000
H      -2.668649643631798      0.163632029163095      0.000000000000000
H      -0.437171227792431      4.381389013948271      0.000000000000000
O       2.537618477654178      2.308624100565196      0.000000000000000
C       3.187696050733835      1.267673564292876      0.000000000000000
N       2.611291118977819      0.022332987762119      0.000000000000000
C       3.355941762353251     -1.130177860519473      0.000000000000000
C       4.699656379298323     -1.127120712886107      0.000000000000000
C       5.416953385440687      0.144976885171941      0.000000000000000
N       4.561554611843964      1.261685458671838      0.000000000000000
O       6.620650418982876      0.293475768799544     -0.000000000000000
H       5.275129233574650     -2.043226727856331     -0.000000000000000
H       1.582542767697166     -0.012048023871961      0.000000000000000
H       5.006209630595350      2.170697562751893      0.000000000000000
H       2.774719661479404     -2.047055830787853      0.000000000000000
