25

O      -1.388359980952940     -1.814325746071064     -0.061996264345814
N      -1.491549725661828      0.453692381681618      0.136908861329618
C      -4.219773187076005      0.390108661217075     -0.067896189532385
C      -3.549548663471816      1.642711497740661      0.087334986479333
C      -2.198296784140986      1.624406419644070      0.182450025676980
C      -2.070352222855380     -0.788833249231824     -0.017017262184163
C      -3.519287489032410     -0.773714454232877     -0.118874903397054
H      -5.303840028837870      0.371423066952767     -0.147050703590132
H      -4.099311569065297      2.576081268128186      0.127049228398507
H      -1.587685999802420      2.514276501831398      0.298326176007461
H      -3.993995991184506     -1.739095910202791     -0.236760025879527
H      -0.464954768995270      0.465217810658660      0.202980439333244
N       1.449297480142735      0.253151768442545      0.118349616451804
C       2.189539103828846     -0.863603396039391      0.154787886739943
C       3.590893448951445     -0.839637617577584      0.023311971404805
C       4.221500257401478      0.375094952704342     -0.145915281486157
C       3.459341564394935      1.543851535620696     -0.185315387803471
C       2.092360198602354      1.424853341821038     -0.050655793780901
H       4.151579384957157     -1.770582037144570      0.065959823262434
H       5.303220461760708      0.417195542491341     -0.248095047702499
H       3.917348351066977      2.517762021575620     -0.317526928448116
H       1.472022929621976      2.320928319400536     -0.077423335390767
N       1.532351444274628     -2.047087108529881      0.376244601386220
H       2.005050365750604     -2.892427060441467      0.100715068741082
H       0.527375836828804     -2.027947258420295      0.223639294184731
