10
formic acid dimer Dimer
C   -1.43494426   -1.23664395    0.00000000
O   -0.99500953    0.00187669    0.00000000
O   -0.75203070   -2.24846554    0.00000000
H   -2.52766058   -1.27695058    0.00000000
H    0.00000000    0.00000000    0.00000000
C    4.02356225   -1.01182159    0.00000000
O    3.58362752   -2.25034224    0.00000000
O    3.34064869    0.00000000    0.00000000
H    5.11627857   -0.97151496    0.00000000
H    2.58861799   -2.24846554    0.00000000
