10

C       0.000000144226062     -0.664172033999505     -2.227544373657309
C      -0.000000289537258      0.664171849511406     -2.227544293893110
H       0.927829231248093     -1.234355204249212     -2.236444411202250
H      -0.927828997581851     -1.234355383461384     -2.236444661047984
H      -0.927829330384159      1.234354728474118     -2.236444658372525
H       0.927828753735822      1.234355539790377     -2.236443952346525
C       0.000000005861990      0.000000003518607      3.058992588124486
C       0.000000095689626      0.000000077344619      1.857221608138696
H       0.000000229517145      0.000000157901168      0.788775520402036
H      -0.000000030488560     -0.000000035504372      4.126842875573511
