10
methane dimer Dimer
C    0.00000000    0.00000000    0.00000000
H    0.36451464    0.51323946   -0.88851235
H    0.36451464    0.51310564    0.88858964
H    0.36421572   -1.02622643   -0.00007728
H   -1.08912298    0.00031101    0.00000002
C    2.60282541    0.00000000    0.00000000
H    3.69194839   -0.00031101   -0.00000002
H    2.23831076   -0.51310564   -0.88858964
H    2.23831076   -0.51323946    0.88851235
H    2.23860968    1.02622643    0.00007728
