13
2-pyridoxine ... 2-aminopyridine Monomer B
N    1.43276200    0.36397000   -0.01595100
C    2.11542000   -0.78034500    0.16811000
C    3.52375900   -0.80161000    0.15450300
C    4.21859000    0.37357800   -0.05259300
C    3.50997100    1.56150100   -0.24497600
C    2.12801400    1.49533200   -0.21753700
H    4.04592100   -1.73613600    0.30768800
H    5.29994300    0.36660100   -0.06633500
H    4.01109200    2.50243100   -0.41300500
H    1.53398800    2.38938400   -0.36705700
N    1.38831200   -1.90830400    0.41981500
H    1.86947100   -2.78127700    0.29403800
H    0.40890700   -1.90799400    0.13008600
