12
formamide dimer Dimer
C   -0.60412015   -1.07034623    0.00000000
O    0.00000000    0.00000000    0.00000000
N   -0.03527368   -2.28627761    0.00000000
H   -0.62084753   -3.10091587    0.00000000
H    0.98235653   -2.38710371    0.00000000
H   -1.70418544   -1.09860749    0.00000000
C    2.87487022   -1.31675748    0.00000000
O    2.27075007   -2.38710371    0.00000000
N    2.30602374   -0.10082610    0.00000000
H    2.89159759    0.71381216    0.00000000
H    1.28839354    0.00000000    0.00000000
H    3.97493551   -1.28849622    0.00000000
