10
pyrazine dimer Monomer A
C   -1.24718900   -1.17182100   -0.69613900
C   -1.24718900   -1.17182100    0.69613900
N   -0.25895100   -1.72357700    1.41448000
C    0.73153300   -2.26522200    0.69672900
C    0.73153300   -2.26522200   -0.69672900
N   -0.25895100   -1.72357700   -1.41448000
H   -2.06343600   -0.72232000   -1.24728000
H   -2.06343600   -0.72232000    1.24728000
H    1.54880000   -2.71282800    1.24756000
H    1.54880000   -2.71282800   -1.24756000
