10

C      -0.323060336101450     -0.664170793406899      0.000000029342626
C      -0.323060268200776      0.664171066148383      0.000000089174799
H      -0.331926943882644     -1.234360416998119     -0.927824735237958
H      -0.331927076431796     -1.234360207623300      0.927825021274417
H      -0.331926942079601      1.234360541781251      0.927824703290106
H      -0.331926808518408      1.234360488518061     -0.927825021358677
C       4.963479020743041      0.000000001618644     -0.000000004264641
C       3.761706709900815      0.000000018795821     -0.000000036435046
H       2.693258232015366      0.000000032146333     -0.000000065408080
H       6.031331666220627     -0.000000009605917      0.000000020541248
