12
ethene dimer Dimer
C    0.00000000   -0.47192500    0.47192500
C    0.00000000    0.47192500   -0.47192500
H    0.92298600   -0.87242200    0.87242200
H    0.92298600    0.87242200   -0.87242200
H   -0.92419700   -0.87046400    0.87046400
H   -0.92419700    0.87046400   -0.87046400
C    7.43644400    0.47192500    0.47192500
C    7.43644400   -0.47192500   -0.47192500
H    6.51345800    0.87242200    0.87242200
H    6.51345800   -0.87242200   -0.87242200
H    8.36064100    0.87046400    0.87046400
H    8.36064100   -0.87046400   -0.87046400
