28

C      -0.052652080000000     -1.393225780000000      0.000000000000000
C      -0.025543350000000     -0.696940100000000     -1.208292000000000
C       0.026348250000000      0.696724230000000     -1.208365000000000
C       0.051042260000000      1.393657540000000      0.000000000000000
C       0.026348250000000      0.696724230000000      1.208365000000000
C      -0.025543350000000     -0.696940100000000      1.208292000000000
H      -0.097430660000000     -2.473655970000000      0.000000000000000
H      -0.040509760000000     -1.237360070000000     -2.144590000000000
H       0.050955580000000      1.236531290000000     -2.144838000000000
H       0.089657640000000      2.474412420000000      0.000000000000000
H       0.050955580000000      1.236531290000000      2.144838000000000
H      -0.040509760000000     -1.237360070000000      2.144590000000000
H       2.007797420000000      0.000000000000000      0.000000000000000
N       3.015114830000000      0.005056390000000      0.000000000000000
C       3.796769010000000      1.132604940000000      0.000000000000000
C       5.125653740000000      0.772354620000000      0.000000000000000
C       5.167047230000000     -0.653193160000000      0.000000000000000
C       3.817202590000000     -1.104920880000000      0.000000000000000
C       3.482542920000000     -2.462094970000000      0.000000000000000
C       4.524735230000000     -3.376178890000000      0.000000000000000
C       5.869058660000000     -2.951641290000000      0.000000000000000
C       6.199398540000000     -1.606705570000000      0.000000000000000
H       3.343074790000000      2.109594760000000      0.000000000000000
H       5.961043540000000      1.451489920000000      0.000000000000000
H       2.450153980000000     -2.785730810000000      0.000000000000000
H       4.303017780000000     -4.434822780000000      0.000000000000000
H       6.655123580000000     -3.694570140000000      0.000000000000000
H       7.235724320000000     -1.294593880000000      0.000000000000000
