12

C       1.044836405871567      1.417599959495526      0.000001804207647
C       1.451727178429518      0.852685719452962     -1.205896489354480
C       1.451726786267141      0.852686310222088      1.205893632614693
C       2.265550358575238     -0.277171467964735     -1.205906749697308
C       2.672440808677627     -0.842100296552480     -0.000001928097000
C       2.265550357935285     -0.277171231128092      1.205909752762082
H       0.409228325341596      2.300062094622965     -0.000000002281072
H       1.133893157306162      1.294003597902123      2.147686011544344
H       2.583372331275195     -0.718347203013745      2.147771566853843
H       3.308072491585146     -1.724541492772339      0.000000125176144
H       2.583372562100315     -0.718347410065345     -2.147772231294570
H       1.133893253705702      1.294003472904152     -2.147685604281769
