28

C      -0.052652080000000     -1.393225780000000      0.000000000000000
C      -0.025543350000000     -0.696940100000000     -1.208292000000000
C       0.026348250000000      0.696724230000000     -1.208365000000000
C       0.051042260000000      1.393657540000000      0.000000000000000
C       0.026348250000000      0.696724230000000      1.208365000000000
C      -0.025543350000000     -0.696940100000000      1.208292000000000
H      -0.097430660000000     -2.473655970000000      0.000000000000000
H      -0.040509760000000     -1.237360070000000     -2.144590000000000
H       0.050955580000000      1.236531290000000     -2.144838000000000
H       0.089657640000000      2.474412420000000      0.000000000000000
H       0.050955580000000      1.236531290000000      2.144838000000000
H      -0.040509760000000     -1.237360070000000      2.144590000000000
H       1.784708820000000      0.000000000000000      0.000000000000000
N       2.792026230000000      0.005056390000000      0.000000000000000
C       3.573680410000000      1.132604940000000      0.000000000000000
C       4.902565140000000      0.772354620000000      0.000000000000000
C       4.943958620000000     -0.653193160000000      0.000000000000000
C       3.594113990000000     -1.104920880000000      0.000000000000000
C       3.259454320000000     -2.462094970000000      0.000000000000000
C       4.301646620000000     -3.376178890000000      0.000000000000000
C       5.645970060000000     -2.951641290000000      0.000000000000000
C       5.976309940000000     -1.606705570000000      0.000000000000000
H       3.119986180000000      2.109594760000000      0.000000000000000
H       5.737954940000000      1.451489920000000      0.000000000000000
H       2.227065380000000     -2.785730810000000      0.000000000000000
H       4.079929180000000     -4.434822780000000      0.000000000000000
H       6.432034980000000     -3.694570140000000      0.000000000000000
H       7.012635720000000     -1.294593880000000      0.000000000000000
