17

C       1.393218000000000      0.036291000000000     -0.633280000000000
C       0.728036000000000     -1.188402000000000     -0.633302000000000
C      -0.665180000000000     -1.224708000000000     -0.633280000000000
C      -1.393204000000000     -0.036297000000000     -0.633302000000000
C      -0.728038000000000      1.188416000000000     -0.633280000000000
C       0.665168000000000      1.224699000000000     -0.633302000000000
H       2.474274000000000      0.064448000000000     -0.631724000000000
H       1.292959000000000     -2.110541000000000     -0.631740000000000
H      -1.181323000000000     -2.175008000000000     -0.631724000000000
H      -2.474261000000000     -0.064465000000000     -0.631740000000000
H      -1.292951000000000      2.110560000000000     -0.631724000000000
H       1.181303000000000      2.175006000000000     -0.631740000000000
C       0.000000000000000      0.000000000000000      3.082619000000000
H       0.586878000000000      0.838174000000000      3.446377000000000
H      -1.019319000000000      0.089164000000000      3.446377000000000
H       0.000000000000000      0.000000000000000      1.996670000000000
H       0.432441000000000     -0.927338000000000      3.446377000000000
