16
benzene ... ammonia Dimer
C    0.00000000    0.00000000   -1.20710800
C   -0.09472391   -0.69068717    0.00000000
C    0.00000000    0.00000000    1.20710800
C    0.18929305    1.38119484    1.20707300
C    0.28420947    2.07177137    0.00000000
C    0.18929305    1.38119484   -1.20707300
H   -0.07088443   -0.53645471   -2.14328900
H   -0.23533516   -1.76264080    0.00000000
H   -0.07088443   -0.53645471    2.14328900
H    0.26243423    1.91683009    2.14369500
H    0.43037381    3.14325787    0.00000000
H    0.26243423    1.91683009   -2.14369500
N    2.80591307   -0.17515845    0.00000000
H    3.16920386    0.31696099   -0.80607300
H    3.16920386    0.31696099    0.80607300
H    1.80781864    0.00000000    0.00000000
