12
benzene dimer (T-shape) Monomer B
C   -1.39406300    0.00000000   -2.45415200
C   -0.69704700    1.20723800   -2.45462800
C    0.69704700    1.20723800   -2.45462800
C    1.39406300    0.00000000   -2.45415200
C    0.69704700   -1.20723800   -2.45462800
C   -0.69704700   -1.20723800   -2.45462800
H   -2.47539900    0.00000000   -2.45032200
H   -1.23823200    2.14356500   -2.45367600
H    1.23823200    2.14356500   -2.45367600
H    2.47539900    0.00000000   -2.45032200
H    1.23823200   -2.14356500   -2.45367600
H   -1.23823200   -2.14356500   -2.45367600
