12

C       0.555190311723220     -0.469519932354189      0.469520364722119
C       0.555191882391732      0.469519553684380     -0.469519786261055
H       1.479854585116153     -0.879033725993115      0.879035294065088
H       1.479857358752489      0.879033593557341     -0.879033083808193
H      -0.374551179212627     -0.868823151183178      0.868822886645526
H      -0.374549128908768      0.868821529099324     -0.868823541144559
C       3.906645607151515      0.469520508500317      0.469520490039694
C       3.906645490412777     -0.469521288892188     -0.469522854735765
H       2.982023290780237      0.879081173581662      0.879080272620741
H       2.982021362531873     -0.879078835784426     -0.879082606780964
H       4.836434056932355      0.868763932276367      0.868765565866682
H       4.836434420663100     -0.868765491444456     -0.868765347822504
