8
ammonia dimer Dimer
N   -0.53502055   -0.86157001    0.00000000
H   -1.14205870   -0.82574073   -0.80956500
H   -1.14205870   -0.82574073    0.80956500
H    0.00000000    0.00000000    0.00000000
N    3.75603545    0.00000000    0.00000000
H    4.36307360   -0.03582927   -0.80956500
H    3.22101490   -0.86157001    0.00000000
H    4.36307360   -0.03582927    0.80956500
