20

C      -1.308231600185702     -1.574086259029116     -0.694729743238321
C      -1.308255424530890     -1.574104616586140      0.694716943018137
N      -0.294366585641990     -2.077473198906785      1.398974322780111
C       0.714700265006713     -2.584320132733548      0.694994152767697
C       0.714727490657107     -2.584294767935687     -0.694964446548420
N      -0.294316376751364     -2.077431787402823     -1.398965200653415
H      -2.146984709836335     -1.162159086875732     -1.258633825616999
H      -2.147027508646389     -1.162193187327151      1.258602875975869
H       1.550109986343297     -3.006160688499607      1.255293298051037
H       1.550164026392574     -3.006104411216182     -1.255246835213712
C      -0.223368174019092      2.541507196765854      1.130007306212465
C       0.814069839472886      1.616353340284482      1.131734937922306
N       1.335153319197398      1.145655014477226     -0.000015632107069
C       0.814057728041971      1.616369034911780     -1.131754709034926
C      -0.223347809441271      2.541558950626853     -1.130004069141721
N      -0.747832347525686      3.011083878925970      0.000007532502045
H      -0.639912732347520      2.917206916993805      2.064417693068460
H       1.236464391139160      1.247461869485883      2.067252953615923
H       1.236408712772418      1.247455067086504     -2.067282806366401
H      -0.639839510824449      2.917339194510102     -2.064405728764217
