10

C       0.000000000000000      0.000000000000000      0.000000000000000
H       0.364514640000000      0.513239460000000     -0.888512350000000
H       0.364514640000000      0.513105640000000      0.888589640000000
H       0.364215720000000     -1.026226430000000     -0.000077280000000
H      -1.089122980000000      0.000311010000000      0.000000020000000
C       2.974657610000000      0.000000000000000      0.000000000000000
H       4.063780590000000     -0.000311010000000     -0.000000020000000
H       2.610142960000000     -0.513105640000000     -0.888589640000000
H       2.610142960000000     -0.513239460000000      0.888512350000000
H       2.610441880000000      1.026226430000000      0.000077280000000
