30

N       0.935015000000000     -0.027980000000000     -0.378892000000000
C       1.673964000000000     -0.035777000000000      0.742432000000000
C       3.074796000000000     -0.009448000000000      0.599456000000000
C       3.564611000000000      0.019545000000000     -0.705987000000000
N       2.853151000000000      0.025803000000000     -1.840960000000000
C       1.549076000000000      0.001257000000000     -1.580801000000000
N       4.088582000000000     -0.005443000000000      1.528979000000000
C       5.182992000000000      0.025397000000000      0.787218000000000
N       4.929487000000000      0.041240000000000     -0.556727000000000
N       1.071618000000000     -0.076537000000000      1.939139000000000
H       0.879444000000000      0.005026000000000     -2.431571000000000
H       6.188259000000000      0.037554000000000      1.173882000000000
H       5.603537000000000      0.064876000000000     -1.303681000000000
H       0.058692000000000     -0.042376000000000      2.003918000000000
H       1.644380000000000     -0.034739000000000      2.761916000000000
N      -3.921173000000000     -0.000965000000000     -1.516366000000000
C      -4.613683000000000      0.016905000000000     -0.333652000000000
C      -3.991739000000000      0.021935000000000      0.866334000000000
C      -2.536137000000000      0.007465000000000      0.876672000000000
N      -1.925648000000000     -0.011059000000000     -0.363895000000000
C      -2.539590000000000     -0.014947000000000     -1.596236000000000
C      -4.710613000000000      0.041337000000000      2.173864000000000
O      -1.867473000000000      0.011209000000000      1.912083000000000
O      -1.941678000000000     -0.029188000000000     -2.657378000000000
H      -4.401717000000000     -0.003608000000000     -2.400492000000000
H      -0.883826000000000     -0.021617000000000     -0.378427000000000
H      -5.690922000000000      0.026935000000000     -0.422718000000000
H      -4.443928000000000     -0.830257000000000      2.769566000000000
H      -4.426706000000000      0.918618000000000      2.753026000000000
H      -5.788397000000000      0.050553000000000      2.024728000000000
