12

C      -0.604120150000000     -1.070346230000000      0.000000000000000
O       0.000000000000000      0.000000000000000      0.000000000000000
N      -0.035273680000000     -2.286277610000000      0.000000000000000
H      -0.620847530000000     -3.100915870000000      0.000000000000000
H       0.982356530000000     -2.387103710000000      0.000000000000000
H      -1.704185440000000     -1.098607490000000      0.000000000000000
C       5.267601070000000     -1.316757480000000      0.000000000000000
O       4.663480920000000     -2.387103710000000      0.000000000000000
N       4.698754600000000     -0.100826100000000      0.000000000000000
H       5.284328450000000      0.713812160000000      0.000000000000000
H       3.681124390000000      0.000000000000000      0.000000000000000
H       6.367666360000000     -1.288496220000000      0.000000000000000
