28

C      -0.119028456517123     -1.394249288912242     -0.000000221905076
C      -0.135784762771783     -0.700015075401673     -1.208437177016749
C      -0.154984616147018      0.693121824112415     -1.207075873614800
C      -0.159814758390886      1.389809383700632     -0.000000366271848
C      -0.154984343186304      0.693121937958243      1.207075216191475
C      -0.135784404945939     -0.700015043376642      1.208436684030332
H      -0.099165459115782     -2.481184940196940     -0.000000185348284
H      -0.124910369264193     -1.243952831234899     -2.149101918433674
H      -0.159411944380697      1.236620321507511     -2.148155652377605
H      -0.161062904340653      2.477113182083975     -0.000000250723701
H      -0.159411442077205      1.236620151569510      2.148155067371234
H      -0.124909582414560     -1.243952586262710      2.149101454266531
H       2.161043649657055      0.070727426981849      0.000000365671979
N       3.168661833687810      0.061070242204646      0.000000189765218
C       3.989783144031397      1.167977685851478      0.000000186402731
C       5.292708128129766      0.761698045221678      0.000000118927944
C       5.285909637090060     -0.677051621100266      0.000000037115160
C       3.933477348540762     -1.076245291633301      0.000000129769379
C       3.546344223846467     -2.421645767159922      0.000000177427022
C       4.552344817398986     -3.370324064949761      0.000000098210252
C       5.910837640112458     -2.997085205158557     -0.000000072673020
C       6.285653558718331     -1.664499670238782     -0.000000113085755
H       3.564196592882771      2.165390852183414      0.000000174388880
H       6.165450600608383      1.401479643845853      0.000000202881131
H       2.495599197081154     -2.697116246384708      0.000000269182900
H       4.291921195694710     -4.425884704470188      0.000000179885347
H       6.674997951477681     -3.770005251885544     -0.000000166979466
H       7.336896116447090     -1.385782256757695     -0.000000266095324
