28
indole ... benzene (stack) Dimer
C    0.00000000    0.00000000    0.00000000
C   -0.04448565   -1.17797863    0.74316010
C   -0.01082464   -2.41120852    0.09533314
C    0.06415077   -2.46693379   -1.29562360
C    0.10095090   -1.28743705   -2.03895997
C    0.06735680   -0.05350021   -1.39137626
H   -0.01379774    0.95688159    0.50334833
H   -0.09134697   -1.13445800    1.82239892
H   -0.03975401   -3.32568027    0.67235867
H    0.08538953   -3.42484902   -1.79837382
H    0.14644278   -1.33017254   -3.11951477
H    0.10085283    0.86245624   -1.96494557
H    2.71776603   -0.57805685    3.49490475
C    2.79350840   -0.57196987    2.41575396
C    2.75305434    0.63365013    1.73434956
H    2.64593586    1.56703853    2.27203610
C    2.85580485    0.62434756    0.33333966
C    2.84563755    1.63366203   -0.67349928
H    2.76201362    2.69803059   -0.53325175
C    2.97622461    0.99280815   -1.88451747
N    3.08193024   -0.36008660   -1.67542289
C    2.99775033   -0.62434756   -0.33333966
C    3.04628813   -1.83984299    0.35175494
H    3.15310695   -2.78021794   -0.17294023
C    2.94151687   -1.79621168    1.73303617
H    2.97314844   -2.71826144    2.29763493
H    3.10387631   -1.05644621   -2.39897877
H    3.01244163    1.39803628   -2.88180774
