24

N       0.275564787745450      1.206906783377869      0.134881599271290
C       0.240635003340908      0.666675253467422     -1.126891894361897
H       0.111860804789467      1.381672192486759     -1.933446884797172
C       0.361157175398993     -0.654827526633359     -1.338433411744161
H       0.332437361154523     -1.082861206153376     -2.332481327617482
C       0.600343174598561     -1.547995953458475     -0.205655253919388
O       0.852821181068319     -2.736482583146570     -0.278702852670294
N       0.521611163010173     -0.908668322565229      1.038954706887171
H       0.728317149159100     -1.475428172336498      1.854582901503501
C       0.416872041678457      0.448521397664899      1.285390899756985
O       0.453671146754168      0.937225739167421      2.394992962600433
H       0.312286576238766      2.207276339943715      0.275468030590851
N       3.763036544567020     -1.206853082689988      0.135920538408673
C       3.796679653373173     -0.666793727637726     -1.125951737512251
H       3.924696784252384     -1.381898890911391     -1.932519746542054
C       3.675899093878570      0.654668438287338     -1.337620692146264
H       3.703449905411910      1.082424768798070     -2.331823250833872
C       3.437862743745510      1.547981914339600     -0.204722111124331
O       3.185216197702158      2.736445768111341     -0.277600027817068
N       3.518086295840831      0.908832718960696      1.039924129496641
H       3.311991618113113      1.475672605499019      1.855643263695776
C       3.622875691944703     -0.448324494224014      1.286458560390543
O       3.586895168170031     -0.936980340214829      2.396109598397080
H       3.726449433200352     -2.207187142809342      0.276747794362445
