8

N      -1.578718000000000     -0.046611000000000      0.000000000000000
H      -2.158621000000000      0.136396000000000     -0.809565000000000
H      -2.158621000000000      0.136396000000000      0.809565000000000
H      -0.849471000000000      0.658193000000000      0.000000000000000
N       1.578718000000000      0.046611000000000      0.000000000000000
H       2.158621000000000     -0.136396000000000     -0.809565000000000
H       0.849471000000000     -0.658193000000000      0.000000000000000
H       2.158621000000000     -0.136396000000000      0.809565000000000
