28

C       0.120704461617169      0.142329142860133      0.043376844132358
C       0.232546713667903     -1.032820599381101      0.783588094097739
C       0.391762592726980     -2.253590157281290      0.131251148690390
C       0.439461610635394     -2.298861629602361     -1.260196023965080
C       0.323683838218050     -1.124290574854622     -2.000218352632502
C       0.164691492634362      0.096854124606607     -1.348372349480886
H      -0.006574239619533      1.095378668572532      0.552126037038588
H       0.191138956516970     -0.997748093619825      1.870005252986283
H       0.474394914650037     -3.171945774309167      0.708288902919839
H       0.562417662905949     -3.252177656277840     -1.768807586474260
H       0.349323143166104     -1.161794878979187     -3.087104315592397
H       0.070384342390936      1.013969589502918     -1.925586155403379
H       4.475689238920107     -0.657182210551209      3.478349409505366
C       4.561613802567768     -0.664194162801513      2.394597509808190
C       4.450834871317029      0.523717581856777      1.692837129074977
H       4.278101731218711      1.461298258207040      2.216272714060139
C       4.565090547436063      0.495666669789355      0.291897803921873
C       4.503238852328552      1.496802742471832     -0.744290360052868
H       4.336878056669333      2.557082911802185     -0.609106658924902
C       4.693127530786628      0.854414860248760     -1.931738459335384
N       4.871971688834199     -0.493458211774625     -1.704065486945290
C       4.794434042967308     -0.740197611514728     -0.351983834473490
C       4.908012948410511     -1.945012144521693      0.351297361258744
H       5.085741715379864     -2.886645803908913     -0.163077229292715
C       4.786570129495075     -1.885426644423624      1.728975158820702
H       4.869535497238193     -2.799512771593875      2.312090572847336
H       5.030750822250947     -1.189588743215171     -2.413247847531470
H       4.718373044299365      1.246164257738089     -2.940300161757881
