10

C       0.000000000000000      0.000000000000000      0.000000000000000
H       0.364514640000000      0.513239460000000     -0.888512350000000
H       0.364514640000000      0.513105640000000      0.888589640000000
H       0.364215720000000     -1.026226430000000     -0.000077280000000
H      -1.089122980000000      0.000311010000000      0.000000020000000
C       5.577483020000000      0.000000000000000      0.000000000000000
H       6.666606000000000     -0.000311010000000     -0.000000020000000
H       5.212968370000000     -0.513105640000000     -0.888589640000000
H       5.212968370000000     -0.513239460000000      0.888512350000000
H       5.213267290000000      1.026226430000000      0.000077280000000
