10

C       0.000000000000000     -0.667578000000000     -2.124659000000000
C       0.000000000000000      0.667578000000000     -2.124659000000000
H       0.923621000000000     -1.232253000000000     -2.126185000000000
H      -0.923621000000000     -1.232253000000000     -2.126185000000000
H      -0.923621000000000      1.232253000000000     -2.126185000000000
H       0.923621000000000      1.232253000000000     -2.126185000000000
C       0.000000000000000      0.000000000000000      2.900503000000000
C       0.000000000000000      0.000000000000000      1.693240000000000
H       0.000000000000000      0.000000000000000      0.627352000000000
H       0.000000000000000      0.000000000000000      3.963929000000000
