26

C      -1.071501880875433     -1.144514137639191      0.241000689604598
O      -0.484908585875901      0.010146887822002     -0.147080216554175
H       0.460440171828818     -0.027243697097166      0.085082423931395
C      -0.378991217118855     -2.130045771109288      0.947888034105805
C      -1.042323386297293     -3.299130761006689      1.320218246475934
C      -2.379399393726670     -3.489090777172771      0.994972089881229
C      -3.061398563584802     -2.497327397780233      0.293074529639656
C      -2.417687211136009     -1.327488256989068     -0.083286045091272
H       0.666270890627200     -1.971935106003400      1.199199750981535
H      -0.508463419368202     -4.068965381652529      1.872146954404070
H      -2.889865050451548     -4.402229401620254      1.287207462065646
H      -4.108655114798931     -2.637280411899291      0.036088047224146
H      -2.932088822535345     -0.542832482456721     -0.630936300279081
O       2.268332650349443     -0.405708099095344      0.290713242736691
C       3.044894462738762     -1.381473860401495     -0.301396529246038
H       2.828381564946073      0.168573716251637      0.831281549061442
C       2.406441982076054     -2.291140343976712     -1.139489024759407
C       3.153549527324993     -3.289651465822492     -1.755131875436983
C       4.525852264653294     -3.381652799751761     -1.539976766415516
C       5.149390401580651     -2.463729375175486     -0.702175411037727
C       4.414364831939309     -1.459444720228788     -0.079293470349753
H       1.334143071710364     -2.206738397804638     -1.301287662735887
H       2.657640737928655     -4.003741687317581     -2.408122127769144
H       5.104493469227867     -4.164010000756545     -2.023402094075026
H       6.220645647886492     -2.526129773047598     -0.528113096537194
H       4.905703205447843     -0.742686490261806      0.576533834059567
