6

C      -0.469469430082276      0.469469441601505      1.859515808693127
C       0.469469320039331     -0.469469297540634      1.859515876690128
H      -0.874493272745470      0.874493270328550      0.934163855077024
H       0.874493359044345     -0.874493368672137      0.934163684801759
H      -0.874502832743347      0.874502820393739      2.784864336253543
H       0.874502844095119     -0.874502851857224      2.784864411576618
