12

C       1.391961913589768      0.036262177184729     -0.632498952094148
C       0.727386257267930     -1.187344659487455     -0.632501409437204
C      -0.664579050546952     -1.223606185357333     -0.632498952228187
C      -1.391962767323642     -0.036262212320781     -0.632501409746269
C      -0.727385659302748      1.187344906700789     -0.632498951070748
C       0.664579264200897      1.223605093683664     -0.632501408957369
H       2.479152075014531      0.064585003029543     -0.632521013874238
H       1.295505593871973     -2.114716825447029     -0.632524624696574
H      -1.183643304428653     -2.179300632808634     -0.632521013782366
H      -2.479151264461847     -0.064582407163486     -0.632524624361380
H      -1.295507735997687      2.114715374185031     -0.632521014763351
H       1.183645730165680      2.179299257470712     -0.632524625102274
