24
uracil dimer (HB) Dimer
O    0.00000000    0.00000000    0.00000000
C   -0.66424394    1.03687915    0.00000000
N   -0.10866344    2.28638952    0.00000000
C   -0.86469194    3.42752195    0.00000000
C   -2.21423160    3.40390953    0.00000000
C   -2.90986986    2.13180389    0.00000000
N   -2.03492462    1.02930119    0.00000000
O   -4.11552152    1.95873396    0.00000000
H   -2.79384033    4.31079935    0.00000000
H    0.91790819    2.33432991    0.00000000
H   -2.46932580    0.11655133    0.00000000
H   -0.30003763    4.34802404    0.00000000
O    3.57974301    2.33432991    0.00000000
C    4.24398695    1.29745076    0.00000000
N    3.68840645    0.04794039    0.00000000
C    4.44443495   -1.09319205    0.00000000
C    5.79397461   -1.06957963    0.00000000
C    6.48961287    0.20252601    0.00000000
N    5.61466764    1.30502871    0.00000000
O    7.69526454    0.37559595    0.00000000
H    6.37358334   -1.97646944    0.00000000
H    2.66183482    0.00000000    0.00000000
H    6.04906882    2.21777858    0.00000000
H    3.87978064   -2.01369414    0.00000000
