28

C       2.444089234269664      1.620485173394486     -0.000000219649648
C       2.690005399899825      0.971050551595471     -1.208442245905817
C       3.169912977957158     -0.336958640167259     -1.207084486053507
C       3.405316290976145     -0.992682911645713      0.000000068082003
C       3.169913492538854     -0.336958664575807      1.207084681607377
C       2.690005953429391      0.971051091865978      1.208442140209170
H       2.065059370780914      2.639387921968758     -0.000000275919448
H       2.499461667004445      1.480628292173433     -2.149116015331414
H       3.354250641094803     -0.848246929674730     -2.148178380406913
H       3.766966959492938     -2.018080093044551      0.000000281130375
H       3.354251342256758     -0.848246253335896      2.148178526598822
H       2.499462865895733      1.480629056116147      2.149115631422574
H       0.778533121746664     -0.517445256982884     -0.000000157372373
N      -0.175329829549018     -0.842303998020880     -0.000000280486514
C      -0.583182310792670     -2.158800624183270     -0.000000212279077
C      -1.947107502381778     -2.207333748522675     -0.000000091568892
C      -2.417511536738708     -0.847665556050364     -0.000000079618379
C      -1.273866625212272     -0.022747209866118     -0.000000196382457
C      -1.354620533330553      1.374930383079663     -0.000000211166301
C      -2.618236765152232      1.936510473300906     -0.000000070174439
C      -3.776174091152552      1.133990873834334      0.000000059944863
C      -3.688042672253652     -0.247488037551855      0.000000047666722
H       0.148913747947624     -2.958780060364335     -0.000000286271046
H      -2.558506015827530     -3.100188524399512      0.000000020996479
H      -0.454536519330961      1.983057563595543     -0.000000315230605
H      -2.722515940248535      3.018734774451949     -0.000000048492673
H      -4.753387567337098      1.609798051779550      0.000000177605652
H      -4.587435945700229     -0.858952383591292      0.000000141611303
