12
benzene ... ammonia Monomer A
C   -0.73928100    0.51587900   -1.20710800
C   -1.42614400    0.39654500    0.00000000
C   -0.73928100    0.51587900    1.20710800
C    0.63422700    0.75464000    1.20707300
C    1.32104300    0.87375700    0.00000000
C    0.63422700    0.75464000   -1.20707300
H   -1.27195000    0.42063200   -2.14328900
H   -2.49022000    0.20523800    0.00000000
H   -1.27195000    0.42063200    2.14328900
H    1.16680000    0.84748800    2.14369500
H    2.38635900    1.05963100    0.00000000
H    1.16680000    0.84748800   -2.14369500
