10

C      -1.524593706482217     -1.201708246835669     -0.000000000000000
O      -1.146146414541799      0.055035128747038     -0.000000000000000
O      -0.817312389855765     -2.188849798413168      0.000000000000000
H      -2.621130700234059     -1.279719246634424     -0.000000000000000
H      -0.154532882113228      0.095055581922059     -0.000000000000000
C       2.275853159574611     -1.046757968003422      0.000000000000000
O       1.897419407020975     -2.303497953150279      0.000000000000000
O       1.568551629027030     -0.059628554970197      0.000000000000000
H       3.372396350216459     -0.968737325739178      0.000000000000000
H       0.905801775553098     -2.343519207655978      0.000000000000000
