10

C       0.000000000000000     -0.667578000000000      0.000000000000000
C       0.000000000000000      0.667578000000000      0.000000000000000
H      -0.001526000000000     -1.232253000000000     -0.923621000000000
H      -0.001526000000000     -1.232253000000000      0.923621000000000
H      -0.001526000000000      1.232253000000000      0.923621000000000
H      -0.001526000000000      1.232253000000000     -0.923621000000000
C       6.401167500000000      0.000000000000000      0.000000000000000
C       5.193904500000000      0.000000000000000      0.000000000000000
H       4.128016500000000      0.000000000000000      0.000000000000000
H       7.464593500000000      0.000000000000000      0.000000000000000
