12

C      -0.000000000000000     -0.000000461149497      1.061683205368790
C      -0.000000000000000     -1.205889452489129      1.757902950311115
C      -0.000000000000000     -1.205884240063275      3.150345480997909
C      -0.000000000000000      0.000000200046323      3.846564578576692
C       0.000000000000000      1.205883960061811      3.150345906620866
C       0.000000000000000      1.205890230311756      1.757902559444904
H       0.000000000000000      0.000000092175388     -0.025868485417108
H      -0.000000000000000     -2.147740053363157      1.214135827382357
H      -0.000000000000000     -2.147713087510795      3.694141035842220
H      -0.000000000000000     -0.000000000731426      4.934113994626522
H       0.000000000000000      2.147713042835288      3.694140969312010
H       0.000000000000000      2.147739760226191      1.214136009120986
