25
2-pyridoxine ... 2-aminopyridine Dimer
O   -0.96965262   -2.24561116   -0.38682252
N   -1.03778979    0.00450875   -0.00113113
C   -3.75926130    0.01402807   -0.01837576
C   -3.05772706    1.22163116    0.20440210
C   -1.69239288    1.17200070    0.20527786
C   -1.65006801   -1.22251475   -0.21798166
C   -3.08826439   -1.16182823   -0.22182597
H   -4.84130076    0.01670850   -0.02689205
H   -3.56722182    2.15683108    0.36938669
H   -1.06806457    2.03877945    0.36777150
H   -3.61208850   -2.09070100   -0.39056387
H    0.00000000    0.00000000    0.00000000
N    1.67349339    0.00000000    0.00000000
C    2.35209343   -1.14532421    0.19259191
C    3.76045927   -1.16867747    0.19663701
C    4.45957300    0.00547708   -0.00172324
C    3.75518299    1.19444766   -0.20296147
C    2.37289404    1.13032803   -0.19284581
H    4.27927413   -2.10397523    0.35634574
H    5.54100177   -0.00310337   -0.00191124
H    4.25976517    2.13463205   -0.36468780
H    1.78211496    2.02525842   -0.34979090
N    1.62021620   -2.27220155    0.43515355
H    2.10161892   -3.14588817    0.31540886
H    0.64452094   -2.27044207    0.13317207
