30

N      -0.299297761391513      0.139675640373799     -0.013451546887350
C      -1.030744316185457     -0.042187685264155      1.105919736700260
C      -2.422474259268250     -0.160268014522853      0.980654655849177
C      -2.928161939075191     -0.080871524558006     -0.306987347503211
N      -2.226968755973997      0.096272375121029     -1.441156511279708
C      -0.936882948022074      0.194334317166836     -1.201125538753508
N      -3.427387743397157     -0.351829939922480      1.917353928218531
C      -4.509562634816874     -0.382489658991120      1.192554401298640
N      -4.281661212892068     -0.225273569666133     -0.155511708068281
N      -0.419007368651915     -0.085893169099979      2.303975074524423
H      -0.299575408496611      0.338349146128072     -2.073309385031366
H      -5.513770463271993     -0.517378304835891      1.577086000097009
H      -4.964421436835877     -0.217268687441790     -0.897651497042221
H       0.596089566607141     -0.115549599566451      2.349524507171015
H      -0.975168103765254     -0.308180486739482      3.114619210132566
N       4.663212520468162      0.111433407274879     -1.147516583511485
C       5.315074807129744     -0.146961920519774      0.039304166223263
C       4.666227033035909     -0.254814654455707      1.208320814832663
C       3.214250966773132     -0.088731019251251      1.203610832585055
N       2.647938032763132      0.189451057197733     -0.023883365430150
C       3.292001153439236      0.282101111923197     -1.237117714983311
C       5.303584172589566     -0.535872205462573      2.526505277780696
O       2.521804172281265     -0.183337507548514      2.214792593574507
O       2.722607467862362      0.494449906292133     -2.288429052479782
H       5.165668298722616      0.177802602842408     -2.020402385793527
H       1.626013465525276      0.304521731953174     -0.048204138220061
H       6.393528386522327     -0.259461410939064     -0.034791201249514
H       5.082138715333683      0.265618504847942      3.237150423469425
H       4.893949625457950     -1.451585731369138      2.962575257452779
H       6.390087589300160     -0.641505184206667      2.441365353793450
