26

C      -2.109876245681191      0.843591072495688     -0.094029156053929
O      -1.435929569490757      1.986063318761776     -0.355822507333039
H      -0.563306887996583      1.938629052416974      0.074595270518640
C      -1.600853722851078     -0.143139716017664      0.753201265530946
C      -2.346606426556084     -1.299117638625893      0.983430632568185
C      -3.585134612332237     -1.474945890022615      0.379413894760031
C      -4.084701814753363     -0.482178580958019     -0.460972150854226
C      -3.357239760162323      0.674768789907315     -0.699334795861640
H      -0.631752574222076      0.003820227382685      1.222188153958275
H      -1.955845207182980     -2.069741150561860      1.643553662197162
H      -4.160570114847054     -2.377892826289124      0.562116134427913
H      -5.054157055119576     -0.611060601579902     -0.936269576224334
H      -3.729517706742295      1.459896225946878     -1.351410940617958
O       1.152057055164678      1.537157341541140      0.666822717077371
C       2.022527690130976      0.546018302984749      0.259727896720305
H       1.591896257271694      2.107979406641987      1.312093792782543
C       1.563943758022862     -0.363010932397420     -0.689430433866578
C       2.410627457523473     -1.376179878622414     -1.126276382467355
C       3.704390424926368     -1.483641215089930     -0.623679161362419
C       4.148477416097544     -0.566364270171126      0.322218668848366
C       3.312230626509640      0.452632298383274      0.768476495020092
H       0.551906161150417     -0.266752226077406     -1.076162215679010
H       2.054800147665688     -2.089394724840158     -1.865854569289473
H       4.361446743947923     -2.277368926521896     -0.968494964080237
H       5.157221308747386     -0.640604641436198      0.720583763842033
H       3.663300785993602      1.169019472651243      1.509275710594779
