20
pyrazine dimer Dimer
C    0.39565304    1.05943214   -0.69613900
C    0.39565304    1.05943214    0.69613900
N   -0.00326336    0.00022738    1.41448000
C   -0.39184736   -1.05969731    0.69672900
C   -0.39184736   -1.05969731   -0.69672900
N   -0.00326336    0.00022738   -1.41448000
H    0.71898338    1.93337025   -1.24728000
H    0.71898338    1.93337025    1.24728000
H   -0.71315225   -1.93436275    1.24756000
H   -0.71315225   -1.93436275   -1.24756000
C    2.70265202    0.64313200    1.13004500
C    2.16690706   -0.64268943    1.13063100
N    1.89388599   -1.30673885    0.00000000
C    2.16690706   -0.64268943   -1.13063100
C    2.70265202    0.64313200   -1.13004500
N    2.98013696    1.30597985    0.00000000
H    2.91361017    1.15247121    2.06186400
H    1.94717154   -1.14774434    2.06239900
H    1.94717154   -1.14774434   -2.06239900
H    2.91361017    1.15247121   -2.06186400
