24

C       0.629051510000000     -1.244058480000000      0.000000000000000
C       0.314072290000000     -0.622134660000000      1.206205000000000
C       0.314072290000000     -0.622134660000000     -1.206205000000000
C      -0.314813550000000      0.621699240000000      1.206954000000000
C      -0.627568990000000      1.244929310000000      0.000000000000000
C      -0.314813550000000      0.621699240000000     -1.206954000000000
H       0.563930580000000     -1.102778150000000     -2.142315000000000
H      -0.559388820000000      1.104085750000000     -2.143798000000000
H      -1.116894120000000      2.209685920000000      0.000000000000000
H      -0.559388820000000      1.104085750000000      2.143798000000000
H       0.563930580000000     -1.102778150000000      2.142315000000000
H       1.129721710000000     -2.202462660000000      0.000000000000000
C       2.006604620000000      1.244058480000000      0.000000000000000
C       2.321583830000000      0.622134660000000     -1.206205000000000
C       2.321583830000000      0.622134660000000      1.206205000000000
C       2.950469670000000     -0.621699240000000     -1.206954000000000
C       3.263225120000000     -1.244929310000000      0.000000000000000
C       2.950469670000000     -0.621699240000000      1.206954000000000
H       1.505934410000000      2.202462660000000      0.000000000000000
H       2.071725550000000      1.102778150000000      2.142315000000000
H       3.195044940000000     -1.104085750000000      2.143798000000000
H       3.752550250000000     -2.209685920000000      0.000000000000000
H       3.195044940000000     -1.104085750000000     -2.143798000000000
H       2.071725550000000      1.102778150000000     -2.142315000000000
