10

C       0.000826655019891      0.000086151379277     -0.000000046251478
H       0.365084270869407      0.515086806951716     -0.891960646117849
H       0.365084287045687      0.514952499235944      0.892038269798431
H       0.364780044155502     -1.029982704610934     -0.000077572061699
H      -1.091653237194082      0.000286926464437      0.000000025243309
C       7.435816840289127     -0.000086330397779      0.000000005419176
H       8.528297226468087     -0.000286924172161     -0.000000014930628
H       7.071559938765134     -0.514952370573757     -0.892038054938668
H       7.071559951709401     -0.515086702117890      0.891960469764526
H       7.071864121972646      1.029982647255752      0.000077563263789
