15

N       0.935015000000000     -0.027980000000000     -0.378892000000000
C       1.673964000000000     -0.035777000000000      0.742432000000000
C       3.074796000000000     -0.009448000000000      0.599456000000000
C       3.564611000000000      0.019545000000000     -0.705987000000000
N       2.853151000000000      0.025803000000000     -1.840960000000000
C       1.549076000000000      0.001257000000000     -1.580801000000000
N       4.088582000000000     -0.005443000000000      1.528979000000000
C       5.182992000000000      0.025397000000000      0.787218000000000
N       4.929487000000000      0.041240000000000     -0.556727000000000
N       1.071618000000000     -0.076537000000000      1.939139000000000
H       0.879444000000000      0.005026000000000     -2.431571000000000
H       6.188259000000000      0.037554000000000      1.173882000000000
H       5.603537000000000      0.064876000000000     -1.303681000000000
H       0.058692000000000     -0.042376000000000      2.003918000000000
H       1.644380000000000     -0.034739000000000      2.761916000000000
